REMARK  Name = ../refined-set-2016/3hzm/3hzm_pocket.pdb
REMARK  123 active torsions:
REMARK  status: ('A' for Active; 'I' for Inactive)
REMARK    1  A    between atoms: _1  and  _3
REMARK    2  A    between atoms: _3  and  _4
REMARK    3  A    between atoms: _3  and  _6
REMARK    4  A    between atoms: _6  and  _7
REMARK    5  A    between atoms: _10  and  _12
REMARK    6  A    between atoms: _12  and  _13
REMARK    7  A    between atoms: _12  and  _15
REMARK    8  A    between atoms: _15  and  _16
REMARK    9  A    between atoms: _21  and  _23
REMARK   10  A    between atoms: _23  and  _24
REMARK   11  A    between atoms: _23  and  _26
REMARK   12  A    between atoms: _26  and  _27
REMARK   13  A    between atoms: _27  and  _28
REMARK   14  A    between atoms: _28  and  _29
REMARK   15  A    between atoms: _38  and  _40
REMARK   16  A    between atoms: _40  and  _41
REMARK   17  A    between atoms: _40  and  _43
REMARK   18  A    between atoms: _43  and  _44
REMARK   19  A    between atoms: _47  and  _49
REMARK   20  A    between atoms: _49  and  _50
REMARK   21  A    between atoms: _49  and  _52
REMARK   22  A    between atoms: _52  and  _53
REMARK   23  A    between atoms: _58  and  _59
REMARK   24  A    between atoms: _61  and  _63
REMARK   25  A    between atoms: _63  and  _64
REMARK   26  A    between atoms: _63  and  _66
REMARK   27  A    between atoms: _66  and  _67
REMARK   28  A    between atoms: _77  and  _79
REMARK   29  A    between atoms: _79  and  _80
REMARK   30  A    between atoms: _79  and  _82
REMARK   31  A    between atoms: _82  and  _83
REMARK   32  A    between atoms: _83  and  _84
REMARK   33  A    between atoms: _84  and  _85
REMARK   34  A    between atoms: _85  and  _86
REMARK   35  A    between atoms: _90  and  _92
REMARK   36  A    between atoms: _92  and  _93
REMARK   37  A    between atoms: _92  and  _95
REMARK   38  A    between atoms: _95  and  _96
REMARK   39  A    between atoms: _96  and  _97
REMARK   40  A    between atoms: _102  and  _104
REMARK   41  A    between atoms: _104  and  _105
REMARK   42  A    between atoms: _104  and  _107
REMARK   43  A    between atoms: _107  and  _108
REMARK   44  A    between atoms: _110  and  _112
REMARK   45  A    between atoms: _112  and  _113
REMARK   46  A    between atoms: _112  and  _115
REMARK   47  A    between atoms: _115  and  _116
REMARK   48  A    between atoms: _121  and  _122
REMARK   49  A    between atoms: _124  and  _126
REMARK   50  A    between atoms: _126  and  _127
REMARK   51  A    between atoms: _126  and  _129
REMARK   52  A    between atoms: _129  and  _130
REMARK   53  A    between atoms: _135  and  _137
REMARK   54  A    between atoms: _137  and  _138
REMARK   55  A    between atoms: _137  and  _140
REMARK   56  A    between atoms: _140  and  _141
REMARK   57  A    between atoms: _144  and  _146
REMARK   58  A    between atoms: _146  and  _147
REMARK   59  A    between atoms: _146  and  _149
REMARK   60  A    between atoms: _149  and  _150
REMARK   61  A    between atoms: _150  and  _151
REMARK   62  A    between atoms: _151  and  _152
REMARK   63  A    between atoms: _161  and  _163
REMARK   64  A    between atoms: _163  and  _164
REMARK   65  A    between atoms: _163  and  _166
REMARK   66  A    between atoms: _166  and  _167
REMARK   67  A    between atoms: _172  and  _173
REMARK   68  A    between atoms: _175  and  _177
REMARK   69  A    between atoms: _177  and  _178
REMARK   70  A    between atoms: _177  and  _180
REMARK   71  A    between atoms: _180  and  _181
REMARK   72  A    between atoms: _187  and  _189
REMARK   73  A    between atoms: _189  and  _190
REMARK   74  A    between atoms: _189  and  _192
REMARK   75  A    between atoms: _192  and  _193
REMARK   76  A    between atoms: _193  and  _194
REMARK   77  A    between atoms: _194  and  _195
REMARK   78  A    between atoms: _204  and  _206
REMARK   79  A    between atoms: _206  and  _207
REMARK   80  A    between atoms: _206  and  _209
REMARK   81  A    between atoms: _209  and  _210
REMARK   82  A    between atoms: _215  and  _217
REMARK   83  A    between atoms: _217  and  _218
REMARK   84  A    between atoms: _217  and  _220
REMARK   85  A    between atoms: _220  and  _221
REMARK   86  A    between atoms: _221  and  _222
REMARK   87  A    between atoms: _222  and  _223
REMARK   88  A    between atoms: _223  and  _224
REMARK   89  A    between atoms: _228  and  _230
REMARK   90  A    between atoms: _230  and  _231
REMARK   91  A    between atoms: _230  and  _233
REMARK   92  A    between atoms: _233  and  _234
REMARK   93  A    between atoms: _237  and  _239
REMARK   94  A    between atoms: _239  and  _240
REMARK   95  A    between atoms: _239  and  _242
REMARK   96  A    between atoms: _242  and  _243
REMARK   97  A    between atoms: _243  and  _244
REMARK   98  A    between atoms: _244  and  _246
REMARK   99  A    between atoms: _247  and  _249
REMARK  100  A    between atoms: _249  and  _250
REMARK  101  A    between atoms: _249  and  _252
REMARK  102  A    between atoms: _252  and  _253
REMARK  103  A    between atoms: _256  and  _258
REMARK  104  A    between atoms: _258  and  _259
REMARK  105  A    between atoms: _258  and  _261
REMARK  106  A    between atoms: _261  and  _262
REMARK  107  A    between atoms: _266  and  _267
REMARK  108  A    between atoms: _272  and  _274
REMARK  109  A    between atoms: _274  and  _275
REMARK  110  A    between atoms: _274  and  _277
REMARK  111  A    between atoms: _277  and  _278
REMARK  112  A    between atoms: _283  and  _284
REMARK  113  A    between atoms: _286  and  _288
REMARK  114  A    between atoms: _288  and  _289
REMARK  115  A    between atoms: _288  and  _291
REMARK  116  A    between atoms: _291  and  _292
REMARK  117  A    between atoms: _297  and  _298
REMARK  118  A    between atoms: _300  and  _302
REMARK  119  A    between atoms: _302  and  _303
REMARK  120  A    between atoms: _302  and  _305
REMARK  121  A    between atoms: _305  and  _306
REMARK  122  A    between atoms: _309  and  _311
REMARK  123  A    between atoms: _311  and  _312
REMARK                            x       y       z     vdW  Elec       q    Type
REMARK                         _______ _______ _______ _____ _____    ______ ____
ROOT
ATOM      1  CA  LEU A   1      -5.670  13.716  -2.144  0.00  0.00    +0.133 C 
ENDROOT
BRANCH   1   2
ATOM      2  N   LEU A   1      -6.055  15.113  -2.295  0.00  0.00    -0.239 NA
ATOM      3  H   LEU A   1      -5.354  15.807  -2.624  0.00  0.00    +0.142 HD
ENDBRANCH   1   2
BRANCH   1   4
ATOM      4  C   LEU A   1      -4.803  13.529  -0.910  0.00  0.00    +0.224 C 
ATOM      5  O   LEU A   1      -4.192  12.472  -0.719  0.00  0.00    -0.287 OA
ENDBRANCH   1   4
BRANCH   1   6
ATOM      6  CB  LEU A   1      -4.932  13.236  -3.395  0.00  0.00    +0.025 C 
BRANCH   6   7
ATOM      7  CG  LEU A   1      -5.684  13.531  -4.694  0.00  0.00    +0.002 C 
ATOM      8  CD2 LEU A   1      -7.014  12.783  -4.687  0.00  0.00    +0.000 C 
ATOM      9  CD1 LEU A   1      -4.833  13.109  -5.922  0.00  0.00    +0.000 C 
ENDBRANCH   6   7
ENDBRANCH   1   6
TORSDOF 4
REMARK  Name = ../refined-set-2016/3hzm/3hzm_pocket.pdb
REMARK  123 active torsions:
REMARK  status: ('A' for Active; 'I' for Inactive)
REMARK    1  A    between atoms: _1  and  _3
REMARK    2  A    between atoms: _3  and  _4
REMARK    3  A    between atoms: _3  and  _6
REMARK    4  A    between atoms: _6  and  _7
REMARK    5  A    between atoms: _10  and  _12
REMARK    6  A    between atoms: _12  and  _13
REMARK    7  A    between atoms: _12  and  _15
REMARK    8  A    between atoms: _15  and  _16
REMARK    9  A    between atoms: _21  and  _23
REMARK   10  A    between atoms: _23  and  _24
REMARK   11  A    between atoms: _23  and  _26
REMARK   12  A    between atoms: _26  and  _27
REMARK   13  A    between atoms: _27  and  _28
REMARK   14  A    between atoms: _28  and  _29
REMARK   15  A    between atoms: _38  and  _40
REMARK   16  A    between atoms: _40  and  _41
REMARK   17  A    between atoms: _40  and  _43
REMARK   18  A    between atoms: _43  and  _44
REMARK   19  A    between atoms: _47  and  _49
REMARK   20  A    between atoms: _49  and  _50
REMARK   21  A    between atoms: _49  and  _52
REMARK   22  A    between atoms: _52  and  _53
REMARK   23  A    between atoms: _58  and  _59
REMARK   24  A    between atoms: _61  and  _63
REMARK   25  A    between atoms: _63  and  _64
REMARK   26  A    between atoms: _63  and  _66
REMARK   27  A    between atoms: _66  and  _67
REMARK   28  A    between atoms: _77  and  _79
REMARK   29  A    between atoms: _79  and  _80
REMARK   30  A    between atoms: _79  and  _82
REMARK   31  A    between atoms: _82  and  _83
REMARK   32  A    between atoms: _83  and  _84
REMARK   33  A    between atoms: _84  and  _85
REMARK   34  A    between atoms: _85  and  _86
REMARK   35  A    between atoms: _90  and  _92
REMARK   36  A    between atoms: _92  and  _93
REMARK   37  A    between atoms: _92  and  _95
REMARK   38  A    between atoms: _95  and  _96
REMARK   39  A    between atoms: _96  and  _97
REMARK   40  A    between atoms: _102  and  _104
REMARK   41  A    between atoms: _104  and  _105
REMARK   42  A    between atoms: _104  and  _107
REMARK   43  A    between atoms: _107  and  _108
REMARK   44  A    between atoms: _110  and  _112
REMARK   45  A    between atoms: _112  and  _113
REMARK   46  A    between atoms: _112  and  _115
REMARK   47  A    between atoms: _115  and  _116
REMARK   48  A    between atoms: _121  and  _122
REMARK   49  A    between atoms: _124  and  _126
REMARK   50  A    between atoms: _126  and  _127
REMARK   51  A    between atoms: _126  and  _129
REMARK   52  A    between atoms: _129  and  _130
REMARK   53  A    between atoms: _135  and  _137
REMARK   54  A    between atoms: _137  and  _138
REMARK   55  A    between atoms: _137  and  _140
REMARK   56  A    between atoms: _140  and  _141
REMARK   57  A    between atoms: _144  and  _146
REMARK   58  A    between atoms: _146  and  _147
REMARK   59  A    between atoms: _146  and  _149
REMARK   60  A    between atoms: _149  and  _150
REMARK   61  A    between atoms: _150  and  _151
REMARK   62  A    between atoms: _151  and  _152
REMARK   63  A    between atoms: _161  and  _163
REMARK   64  A    between atoms: _163  and  _164
REMARK   65  A    between atoms: _163  and  _166
REMARK   66  A    between atoms: _166  and  _167
REMARK   67  A    between atoms: _172  and  _173
REMARK   68  A    between atoms: _175  and  _177
REMARK   69  A    between atoms: _177  and  _178
REMARK   70  A    between atoms: _177  and  _180
REMARK   71  A    between atoms: _180  and  _181
REMARK   72  A    between atoms: _187  and  _189
REMARK   73  A    between atoms: _189  and  _190
REMARK   74  A    between atoms: _189  and  _192
REMARK   75  A    between atoms: _192  and  _193
REMARK   76  A    between atoms: _193  and  _194
REMARK   77  A    between atoms: _194  and  _195
REMARK   78  A    between atoms: _204  and  _206
REMARK   79  A    between atoms: _206  and  _207
REMARK   80  A    between atoms: _206  and  _209
REMARK   81  A    between atoms: _209  and  _210
REMARK   82  A    between atoms: _215  and  _217
REMARK   83  A    between atoms: _217  and  _218
REMARK   84  A    between atoms: _217  and  _220
REMARK   85  A    between atoms: _220  and  _221
REMARK   86  A    between atoms: _221  and  _222
REMARK   87  A    between atoms: _222  and  _223
REMARK   88  A    between atoms: _223  and  _224
REMARK   89  A    between atoms: _228  and  _230
REMARK   90  A    between atoms: _230  and  _231
REMARK   91  A    between atoms: _230  and  _233
REMARK   92  A    between atoms: _233  and  _234
REMARK   93  A    between atoms: _237  and  _239
REMARK   94  A    between atoms: _239  and  _240
REMARK   95  A    between atoms: _239  and  _242
REMARK   96  A    between atoms: _242  and  _243
REMARK   97  A    between atoms: _243  and  _244
REMARK   98  A    between atoms: _244  and  _246
REMARK   99  A    between atoms: _247  and  _249
REMARK  100  A    between atoms: _249  and  _250
REMARK  101  A    between atoms: _249  and  _252
REMARK  102  A    between atoms: _252  and  _253
REMARK  103  A    between atoms: _256  and  _258
REMARK  104  A    between atoms: _258  and  _259
REMARK  105  A    between atoms: _258  and  _261
REMARK  106  A    between atoms: _261  and  _262
REMARK  107  A    between atoms: _266  and  _267
REMARK  108  A    between atoms: _272  and  _274
REMARK  109  A    between atoms: _274  and  _275
REMARK  110  A    between atoms: _274  and  _277
REMARK  111  A    between atoms: _277  and  _278
REMARK  112  A    between atoms: _283  and  _284
REMARK  113  A    between atoms: _286  and  _288
REMARK  114  A    between atoms: _288  and  _289
REMARK  115  A    between atoms: _288  and  _291
REMARK  116  A    between atoms: _291  and  _292
REMARK  117  A    between atoms: _297  and  _298
REMARK  118  A    between atoms: _300  and  _302
REMARK  119  A    between atoms: _302  and  _303
REMARK  120  A    between atoms: _302  and  _305
REMARK  121  A    between atoms: _305  and  _306
REMARK  122  A    between atoms: _309  and  _311
REMARK  123  A    between atoms: _311  and  _312
REMARK                            x       y       z     vdW  Elec       q    Type
REMARK                         _______ _______ _______ _____ _____    ______ ____
ROOT
ATOM      1  CB  ASN A   1      -4.563  10.510   3.747  0.00  0.00    +0.110 C 
ENDROOT
BRANCH   1   2
ATOM      2  CG  ASN A   1      -5.423   9.696   4.723  0.00  0.00    +0.221 C 
ATOM      3  OD1 ASN A   1      -5.369   9.912   5.933  0.00  0.00    -0.275 OA
ATOM      4  ND2 ASN A   1      -6.204   8.744   4.195  0.00  0.00    -0.329 N 
ATOM      5 HD21 ASN A   1      -6.795   8.154   4.814  0.00  0.00    +0.145 HD
ATOM      6 HD22 ASN A   1      -6.219   8.595   3.166  0.00  0.00    +0.145 HD
ENDBRANCH   1   2
BRANCH   1   7
ATOM      7  CA  ASN A   1      -4.808  12.020   3.848  0.00  0.00    +0.142 C 
BRANCH   7   8
ATOM      8  N   ASN A   1      -4.190  12.705   2.722  0.00  0.00    -0.239 NA
ATOM      9  H   ASN A   1      -3.369  12.276   2.250  0.00  0.00    +0.142 HD
ENDBRANCH   7   8
BRANCH   7  10
ATOM     10  C   ASN A   1      -4.271  12.614   5.156  0.00  0.00    +0.225 C 
ATOM     11  O   ASN A   1      -3.105  12.466   5.482  0.00  0.00    -0.287 OA
ENDBRANCH   7  10
ENDBRANCH   1   7
TORSDOF 4
REMARK  Name = ../refined-set-2016/3hzm/3hzm_pocket.pdb
REMARK  123 active torsions:
REMARK  status: ('A' for Active; 'I' for Inactive)
REMARK    1  A    between atoms: _1  and  _3
REMARK    2  A    between atoms: _3  and  _4
REMARK    3  A    between atoms: _3  and  _6
REMARK    4  A    between atoms: _6  and  _7
REMARK    5  A    between atoms: _10  and  _12
REMARK    6  A    between atoms: _12  and  _13
REMARK    7  A    between atoms: _12  and  _15
REMARK    8  A    between atoms: _15  and  _16
REMARK    9  A    between atoms: _21  and  _23
REMARK   10  A    between atoms: _23  and  _24
REMARK   11  A    between atoms: _23  and  _26
REMARK   12  A    between atoms: _26  and  _27
REMARK   13  A    between atoms: _27  and  _28
REMARK   14  A    between atoms: _28  and  _29
REMARK   15  A    between atoms: _38  and  _40
REMARK   16  A    between atoms: _40  and  _41
REMARK   17  A    between atoms: _40  and  _43
REMARK   18  A    between atoms: _43  and  _44
REMARK   19  A    between atoms: _47  and  _49
REMARK   20  A    between atoms: _49  and  _50
REMARK   21  A    between atoms: _49  and  _52
REMARK   22  A    between atoms: _52  and  _53
REMARK   23  A    between atoms: _58  and  _59
REMARK   24  A    between atoms: _61  and  _63
REMARK   25  A    between atoms: _63  and  _64
REMARK   26  A    between atoms: _63  and  _66
REMARK   27  A    between atoms: _66  and  _67
REMARK   28  A    between atoms: _77  and  _79
REMARK   29  A    between atoms: _79  and  _80
REMARK   30  A    between atoms: _79  and  _82
REMARK   31  A    between atoms: _82  and  _83
REMARK   32  A    between atoms: _83  and  _84
REMARK   33  A    between atoms: _84  and  _85
REMARK   34  A    between atoms: _85  and  _86
REMARK   35  A    between atoms: _90  and  _92
REMARK   36  A    between atoms: _92  and  _93
REMARK   37  A    between atoms: _92  and  _95
REMARK   38  A    between atoms: _95  and  _96
REMARK   39  A    between atoms: _96  and  _97
REMARK   40  A    between atoms: _102  and  _104
REMARK   41  A    between atoms: _104  and  _105
REMARK   42  A    between atoms: _104  and  _107
REMARK   43  A    between atoms: _107  and  _108
REMARK   44  A    between atoms: _110  and  _112
REMARK   45  A    between atoms: _112  and  _113
REMARK   46  A    between atoms: _112  and  _115
REMARK   47  A    between atoms: _115  and  _116
REMARK   48  A    between atoms: _121  and  _122
REMARK   49  A    between atoms: _124  and  _126
REMARK   50  A    between atoms: _126  and  _127
REMARK   51  A    between atoms: _126  and  _129
REMARK   52  A    between atoms: _129  and  _130
REMARK   53  A    between atoms: _135  and  _137
REMARK   54  A    between atoms: _137  and  _138
REMARK   55  A    between atoms: _137  and  _140
REMARK   56  A    between atoms: _140  and  _141
REMARK   57  A    between atoms: _144  and  _146
REMARK   58  A    between atoms: _146  and  _147
REMARK   59  A    between atoms: _146  and  _149
REMARK   60  A    between atoms: _149  and  _150
REMARK   61  A    between atoms: _150  and  _151
REMARK   62  A    between atoms: _151  and  _152
REMARK   63  A    between atoms: _161  and  _163
REMARK   64  A    between atoms: _163  and  _164
REMARK   65  A    between atoms: _163  and  _166
REMARK   66  A    between atoms: _166  and  _167
REMARK   67  A    between atoms: _172  and  _173
REMARK   68  A    between atoms: _175  and  _177
REMARK   69  A    between atoms: _177  and  _178
REMARK   70  A    between atoms: _177  and  _180
REMARK   71  A    between atoms: _180  and  _181
REMARK   72  A    between atoms: _187  and  _189
REMARK   73  A    between atoms: _189  and  _190
REMARK   74  A    between atoms: _189  and  _192
REMARK   75  A    between atoms: _192  and  _193
REMARK   76  A    between atoms: _193  and  _194
REMARK   77  A    between atoms: _194  and  _195
REMARK   78  A    between atoms: _204  and  _206
REMARK   79  A    between atoms: _206  and  _207
REMARK   80  A    between atoms: _206  and  _209
REMARK   81  A    between atoms: _209  and  _210
REMARK   82  A    between atoms: _215  and  _217
REMARK   83  A    between atoms: _217  and  _218
REMARK   84  A    between atoms: _217  and  _220
REMARK   85  A    between atoms: _220  and  _221
REMARK   86  A    between atoms: _221  and  _222
REMARK   87  A    between atoms: _222  and  _223
REMARK   88  A    between atoms: _223  and  _224
REMARK   89  A    between atoms: _228  and  _230
REMARK   90  A    between atoms: _230  and  _231
REMARK   91  A    between atoms: _230  and  _233
REMARK   92  A    between atoms: _233  and  _234
REMARK   93  A    between atoms: _237  and  _239
REMARK   94  A    between atoms: _239  and  _240
REMARK   95  A    between atoms: _239  and  _242
REMARK   96  A    between atoms: _242  and  _243
REMARK   97  A    between atoms: _243  and  _244
REMARK   98  A    between atoms: _244  and  _246
REMARK   99  A    between atoms: _247  and  _249
REMARK  100  A    between atoms: _249  and  _250
REMARK  101  A    between atoms: _249  and  _252
REMARK  102  A    between atoms: _252  and  _253
REMARK  103  A    between atoms: _256  and  _258
REMARK  104  A    between atoms: _258  and  _259
REMARK  105  A    between atoms: _258  and  _261
REMARK  106  A    between atoms: _261  and  _262
REMARK  107  A    between atoms: _266  and  _267
REMARK  108  A    between atoms: _272  and  _274
REMARK  109  A    between atoms: _274  and  _275
REMARK  110  A    between atoms: _274  and  _277
REMARK  111  A    between atoms: _277  and  _278
REMARK  112  A    between atoms: _283  and  _284
REMARK  113  A    between atoms: _286  and  _288
REMARK  114  A    between atoms: _288  and  _289
REMARK  115  A    between atoms: _288  and  _291
REMARK  116  A    between atoms: _291  and  _292
REMARK  117  A    between atoms: _297  and  _298
REMARK  118  A    between atoms: _300  and  _302
REMARK  119  A    between atoms: _302  and  _303
REMARK  120  A    between atoms: _302  and  _305
REMARK  121  A    between atoms: _305  and  _306
REMARK  122  A    between atoms: _309  and  _311
REMARK  123  A    between atoms: _311  and  _312
REMARK                            x       y       z     vdW  Elec       q    Type
REMARK                         _______ _______ _______ _____ _____    ______ ____
ROOT
ATOM      1  CA  ARG A   1      -4.392  10.760   8.959  0.00  0.00    +0.145 C 
ENDROOT
BRANCH   1   2
ATOM      2  C   ARG A   1      -2.934  10.340   8.718  0.00  0.00    +0.238 C 
ATOM      3  O   ARG A   1      -2.087  10.459   9.613  0.00  0.00    -0.274 OA
ATOM      4  N   THR A   2      -2.646   9.873   7.500  0.00  0.00    -0.296 N 
ATOM      5  H   THR A   2      -3.402   9.821   6.787  0.00  0.00    +0.150 HD
BRANCH   4   6
ATOM      6  CA  THR A   2      -1.291   9.430   7.138  0.00  0.00    +0.164 C 
BRANCH   6   7
ATOM      7  C   THR A   2      -0.292  10.566   6.816  0.00  0.00    +0.229 C 
ATOM      8  O   THR A   2       0.911  10.380   6.935  0.00  0.00    -0.286 OA
ENDBRANCH   6   7
BRANCH   6   9
ATOM      9  CB  THR A   2      -1.298   8.364   5.984  0.00  0.00    +0.136 C 
ATOM     10  CG2 THR A   2      -1.764   7.008   6.499  0.00  0.00    +0.034 C 
BRANCH   9  11
ATOM     11  OG1 THR A   2      -2.169   8.778   4.920  0.00  0.00    -0.382 OA
ATOM     12  HG1 THR A   2      -2.160   8.095   4.203  0.00  0.00    +0.210 HD
ENDBRANCH   9  11
ENDBRANCH   6   9
ENDBRANCH   4   6
ENDBRANCH   1   2
BRANCH   1  13
ATOM     13  N   ARG A   1      -4.743  11.836   8.041  0.00  0.00    -0.238 NA
ATOM     14  H   ARG A   1      -5.387  11.632   7.250  0.00  0.00    +0.142 HD
ENDBRANCH   1  13
BRANCH   1  15
ATOM     15  CB  ARG A   1      -5.351   9.576   8.766  0.00  0.00    +0.030 C 
BRANCH  15  16
ATOM     16  CG  ARG A   1      -5.394   8.567   9.908  0.00  0.00    +0.045 C 
BRANCH  16  17
ATOM     17  CD  ARG A   1      -5.964   7.215   9.449  0.00  0.00    +0.174 C 
BRANCH  17  18
ATOM     18  NE  ARG A   1      -4.943   6.350   8.850  0.00  0.00    -0.265 N 
ATOM     19  HE  ARG A   1      -4.115   6.114   9.433  0.00  0.00    +0.259 HD
ATOM     20  CZ  ARG A   1      -4.989   5.840   7.616  0.00  0.00    +0.342 C 
ATOM     21  NH2 ARG A   1      -3.996   5.066   7.190  0.00  0.00    -0.292 N 
ATOM     22 HH21 ARG A   1      -3.191   4.861   7.816  0.00  0.00    +0.255 HD
ATOM     23 HH22 ARG A   1      -4.024   4.665   6.231  0.00  0.00    +0.255 HD
ATOM     24  NH1 ARG A   1      -6.026   6.073   6.811  0.00  0.00    -0.292 N 
ATOM     25 HH11 ARG A   1      -6.818   6.661   7.140  0.00  0.00    +0.255 HD
ATOM     26 HH12 ARG A   1      -6.043   5.667   5.854  0.00  0.00    +0.255 HD
ENDBRANCH  17  18
ENDBRANCH  16  17
ENDBRANCH  15  16
ENDBRANCH   1  15
TORSDOF 10
REMARK  Name = ../refined-set-2016/3hzm/3hzm_pocket.pdb
REMARK  123 active torsions:
REMARK  status: ('A' for Active; 'I' for Inactive)
REMARK    1  A    between atoms: _1  and  _3
REMARK    2  A    between atoms: _3  and  _4
REMARK    3  A    between atoms: _3  and  _6
REMARK    4  A    between atoms: _6  and  _7
REMARK    5  A    between atoms: _10  and  _12
REMARK    6  A    between atoms: _12  and  _13
REMARK    7  A    between atoms: _12  and  _15
REMARK    8  A    between atoms: _15  and  _16
REMARK    9  A    between atoms: _21  and  _23
REMARK   10  A    between atoms: _23  and  _24
REMARK   11  A    between atoms: _23  and  _26
REMARK   12  A    between atoms: _26  and  _27
REMARK   13  A    between atoms: _27  and  _28
REMARK   14  A    between atoms: _28  and  _29
REMARK   15  A    between atoms: _38  and  _40
REMARK   16  A    between atoms: _40  and  _41
REMARK   17  A    between atoms: _40  and  _43
REMARK   18  A    between atoms: _43  and  _44
REMARK   19  A    between atoms: _47  and  _49
REMARK   20  A    between atoms: _49  and  _50
REMARK   21  A    between atoms: _49  and  _52
REMARK   22  A    between atoms: _52  and  _53
REMARK   23  A    between atoms: _58  and  _59
REMARK   24  A    between atoms: _61  and  _63
REMARK   25  A    between atoms: _63  and  _64
REMARK   26  A    between atoms: _63  and  _66
REMARK   27  A    between atoms: _66  and  _67
REMARK   28  A    between atoms: _77  and  _79
REMARK   29  A    between atoms: _79  and  _80
REMARK   30  A    between atoms: _79  and  _82
REMARK   31  A    between atoms: _82  and  _83
REMARK   32  A    between atoms: _83  and  _84
REMARK   33  A    between atoms: _84  and  _85
REMARK   34  A    between atoms: _85  and  _86
REMARK   35  A    between atoms: _90  and  _92
REMARK   36  A    between atoms: _92  and  _93
REMARK   37  A    between atoms: _92  and  _95
REMARK   38  A    between atoms: _95  and  _96
REMARK   39  A    between atoms: _96  and  _97
REMARK   40  A    between atoms: _102  and  _104
REMARK   41  A    between atoms: _104  and  _105
REMARK   42  A    between atoms: _104  and  _107
REMARK   43  A    between atoms: _107  and  _108
REMARK   44  A    between atoms: _110  and  _112
REMARK   45  A    between atoms: _112  and  _113
REMARK   46  A    between atoms: _112  and  _115
REMARK   47  A    between atoms: _115  and  _116
REMARK   48  A    between atoms: _121  and  _122
REMARK   49  A    between atoms: _124  and  _126
REMARK   50  A    between atoms: _126  and  _127
REMARK   51  A    between atoms: _126  and  _129
REMARK   52  A    between atoms: _129  and  _130
REMARK   53  A    between atoms: _135  and  _137
REMARK   54  A    between atoms: _137  and  _138
REMARK   55  A    between atoms: _137  and  _140
REMARK   56  A    between atoms: _140  and  _141
REMARK   57  A    between atoms: _144  and  _146
REMARK   58  A    between atoms: _146  and  _147
REMARK   59  A    between atoms: _146  and  _149
REMARK   60  A    between atoms: _149  and  _150
REMARK   61  A    between atoms: _150  and  _151
REMARK   62  A    between atoms: _151  and  _152
REMARK   63  A    between atoms: _161  and  _163
REMARK   64  A    between atoms: _163  and  _164
REMARK   65  A    between atoms: _163  and  _166
REMARK   66  A    between atoms: _166  and  _167
REMARK   67  A    between atoms: _172  and  _173
REMARK   68  A    between atoms: _175  and  _177
REMARK   69  A    between atoms: _177  and  _178
REMARK   70  A    between atoms: _177  and  _180
REMARK   71  A    between atoms: _180  and  _181
REMARK   72  A    between atoms: _187  and  _189
REMARK   73  A    between atoms: _189  and  _190
REMARK   74  A    between atoms: _189  and  _192
REMARK   75  A    between atoms: _192  and  _193
REMARK   76  A    between atoms: _193  and  _194
REMARK   77  A    between atoms: _194  and  _195
REMARK   78  A    between atoms: _204  and  _206
REMARK   79  A    between atoms: _206  and  _207
REMARK   80  A    between atoms: _206  and  _209
REMARK   81  A    between atoms: _209  and  _210
REMARK   82  A    between atoms: _215  and  _217
REMARK   83  A    between atoms: _217  and  _218
REMARK   84  A    between atoms: _217  and  _220
REMARK   85  A    between atoms: _220  and  _221
REMARK   86  A    between atoms: _221  and  _222
REMARK   87  A    between atoms: _222  and  _223
REMARK   88  A    between atoms: _223  and  _224
REMARK   89  A    between atoms: _228  and  _230
REMARK   90  A    between atoms: _230  and  _231
REMARK   91  A    between atoms: _230  and  _233
REMARK   92  A    between atoms: _233  and  _234
REMARK   93  A    between atoms: _237  and  _239
REMARK   94  A    between atoms: _239  and  _240
REMARK   95  A    between atoms: _239  and  _242
REMARK   96  A    between atoms: _242  and  _243
REMARK   97  A    between atoms: _243  and  _244
REMARK   98  A    between atoms: _244  and  _246
REMARK   99  A    between atoms: _247  and  _249
REMARK  100  A    between atoms: _249  and  _250
REMARK  101  A    between atoms: _249  and  _252
REMARK  102  A    between atoms: _252  and  _253
REMARK  103  A    between atoms: _256  and  _258
REMARK  104  A    between atoms: _258  and  _259
REMARK  105  A    between atoms: _258  and  _261
REMARK  106  A    between atoms: _261  and  _262
REMARK  107  A    between atoms: _266  and  _267
REMARK  108  A    between atoms: _272  and  _274
REMARK  109  A    between atoms: _274  and  _275
REMARK  110  A    between atoms: _274  and  _277
REMARK  111  A    between atoms: _277  and  _278
REMARK  112  A    between atoms: _283  and  _284
REMARK  113  A    between atoms: _286  and  _288
REMARK  114  A    between atoms: _288  and  _289
REMARK  115  A    between atoms: _288  and  _291
REMARK  116  A    between atoms: _291  and  _292
REMARK  117  A    between atoms: _297  and  _298
REMARK  118  A    between atoms: _300  and  _302
REMARK  119  A    between atoms: _302  and  _303
REMARK  120  A    between atoms: _302  and  _305
REMARK  121  A    between atoms: _305  and  _306
REMARK  122  A    between atoms: _309  and  _311
REMARK  123  A    between atoms: _311  and  _312
REMARK                            x       y       z     vdW  Elec       q    Type
REMARK                         _______ _______ _______ _____ _____    ______ ____
ROOT
ATOM      1  CG  TYR A   1      -3.653   8.177  -0.784  0.00  0.00    -0.020 A 
ATOM      2  CD2 TYR A   1      -3.486   8.982   0.338  0.00  0.00    -0.001 A 
ATOM      3  CE2 TYR A   1      -3.412   8.433   1.617  0.00  0.00    +0.036 A 
ATOM      4  CZ  TYR A   1      -3.492   7.079   1.795  0.00  0.00    +0.134 A 
ATOM      5  CE1 TYR A   1      -3.644   6.246   0.698  0.00  0.00    +0.036 A 
ATOM      6  CD1 TYR A   1      -3.717   6.801  -0.588  0.00  0.00    -0.001 A 
ENDROOT
BRANCH   4   7
ATOM      7  OH  TYR A   1      -3.413   6.557   3.079  0.00  0.00    -0.506 OA
ATOM      8  HH  TYR A   1      -2.545   6.808   3.483  0.00  0.00    +0.292 HD
ENDBRANCH   4   7
BRANCH   1   9
ATOM      9  CB  TYR A   1      -3.717   8.787  -2.186  0.00  0.00    +0.051 C 
BRANCH   9  10
ATOM     10  CA  TYR A   1      -2.382   9.416  -2.604  0.00  0.00    +0.137 C 
BRANCH  10  11
ATOM     11  N   TYR A   1      -2.169  10.662  -1.879  0.00  0.00    -0.239 NA
ATOM     12  H   TYR A   1      -2.986  11.196  -1.520  0.00  0.00    +0.142 HD
ENDBRANCH  10  11
BRANCH  10  13
ATOM     13  C   TYR A   1      -2.343   9.688  -4.111  0.00  0.00    +0.224 C 
ATOM     14  O   TYR A   1      -3.370   9.607  -4.791  0.00  0.00    -0.287 OA
ENDBRANCH  10  13
ENDBRANCH   9  10
ENDBRANCH   1   9
TORSDOF 5
REMARK  Name = ../refined-set-2016/3hzm/3hzm_pocket.pdb
REMARK  123 active torsions:
REMARK  status: ('A' for Active; 'I' for Inactive)
REMARK    1  A    between atoms: _1  and  _3
REMARK    2  A    between atoms: _3  and  _4
REMARK    3  A    between atoms: _3  and  _6
REMARK    4  A    between atoms: _6  and  _7
REMARK    5  A    between atoms: _10  and  _12
REMARK    6  A    between atoms: _12  and  _13
REMARK    7  A    between atoms: _12  and  _15
REMARK    8  A    between atoms: _15  and  _16
REMARK    9  A    between atoms: _21  and  _23
REMARK   10  A    between atoms: _23  and  _24
REMARK   11  A    between atoms: _23  and  _26
REMARK   12  A    between atoms: _26  and  _27
REMARK   13  A    between atoms: _27  and  _28
REMARK   14  A    between atoms: _28  and  _29
REMARK   15  A    between atoms: _38  and  _40
REMARK   16  A    between atoms: _40  and  _41
REMARK   17  A    between atoms: _40  and  _43
REMARK   18  A    between atoms: _43  and  _44
REMARK   19  A    between atoms: _47  and  _49
REMARK   20  A    between atoms: _49  and  _50
REMARK   21  A    between atoms: _49  and  _52
REMARK   22  A    between atoms: _52  and  _53
REMARK   23  A    between atoms: _58  and  _59
REMARK   24  A    between atoms: _61  and  _63
REMARK   25  A    between atoms: _63  and  _64
REMARK   26  A    between atoms: _63  and  _66
REMARK   27  A    between atoms: _66  and  _67
REMARK   28  A    between atoms: _77  and  _79
REMARK   29  A    between atoms: _79  and  _80
REMARK   30  A    between atoms: _79  and  _82
REMARK   31  A    between atoms: _82  and  _83
REMARK   32  A    between atoms: _83  and  _84
REMARK   33  A    between atoms: _84  and  _85
REMARK   34  A    between atoms: _85  and  _86
REMARK   35  A    between atoms: _90  and  _92
REMARK   36  A    between atoms: _92  and  _93
REMARK   37  A    between atoms: _92  and  _95
REMARK   38  A    between atoms: _95  and  _96
REMARK   39  A    between atoms: _96  and  _97
REMARK   40  A    between atoms: _102  and  _104
REMARK   41  A    between atoms: _104  and  _105
REMARK   42  A    between atoms: _104  and  _107
REMARK   43  A    between atoms: _107  and  _108
REMARK   44  A    between atoms: _110  and  _112
REMARK   45  A    between atoms: _112  and  _113
REMARK   46  A    between atoms: _112  and  _115
REMARK   47  A    between atoms: _115  and  _116
REMARK   48  A    between atoms: _121  and  _122
REMARK   49  A    between atoms: _124  and  _126
REMARK   50  A    between atoms: _126  and  _127
REMARK   51  A    between atoms: _126  and  _129
REMARK   52  A    between atoms: _129  and  _130
REMARK   53  A    between atoms: _135  and  _137
REMARK   54  A    between atoms: _137  and  _138
REMARK   55  A    between atoms: _137  and  _140
REMARK   56  A    between atoms: _140  and  _141
REMARK   57  A    between atoms: _144  and  _146
REMARK   58  A    between atoms: _146  and  _147
REMARK   59  A    between atoms: _146  and  _149
REMARK   60  A    between atoms: _149  and  _150
REMARK   61  A    between atoms: _150  and  _151
REMARK   62  A    between atoms: _151  and  _152
REMARK   63  A    between atoms: _161  and  _163
REMARK   64  A    between atoms: _163  and  _164
REMARK   65  A    between atoms: _163  and  _166
REMARK   66  A    between atoms: _166  and  _167
REMARK   67  A    between atoms: _172  and  _173
REMARK   68  A    between atoms: _175  and  _177
REMARK   69  A    between atoms: _177  and  _178
REMARK   70  A    between atoms: _177  and  _180
REMARK   71  A    between atoms: _180  and  _181
REMARK   72  A    between atoms: _187  and  _189
REMARK   73  A    between atoms: _189  and  _190
REMARK   74  A    between atoms: _189  and  _192
REMARK   75  A    between atoms: _192  and  _193
REMARK   76  A    between atoms: _193  and  _194
REMARK   77  A    between atoms: _194  and  _195
REMARK   78  A    between atoms: _204  and  _206
REMARK   79  A    between atoms: _206  and  _207
REMARK   80  A    between atoms: _206  and  _209
REMARK   81  A    between atoms: _209  and  _210
REMARK   82  A    between atoms: _215  and  _217
REMARK   83  A    between atoms: _217  and  _218
REMARK   84  A    between atoms: _217  and  _220
REMARK   85  A    between atoms: _220  and  _221
REMARK   86  A    between atoms: _221  and  _222
REMARK   87  A    between atoms: _222  and  _223
REMARK   88  A    between atoms: _223  and  _224
REMARK   89  A    between atoms: _228  and  _230
REMARK   90  A    between atoms: _230  and  _231
REMARK   91  A    between atoms: _230  and  _233
REMARK   92  A    between atoms: _233  and  _234
REMARK   93  A    between atoms: _237  and  _239
REMARK   94  A    between atoms: _239  and  _240
REMARK   95  A    between atoms: _239  and  _242
REMARK   96  A    between atoms: _242  and  _243
REMARK   97  A    between atoms: _243  and  _244
REMARK   98  A    between atoms: _244  and  _246
REMARK   99  A    between atoms: _247  and  _249
REMARK  100  A    between atoms: _249  and  _250
REMARK  101  A    between atoms: _249  and  _252
REMARK  102  A    between atoms: _252  and  _253
REMARK  103  A    between atoms: _256  and  _258
REMARK  104  A    between atoms: _258  and  _259
REMARK  105  A    between atoms: _258  and  _261
REMARK  106  A    between atoms: _261  and  _262
REMARK  107  A    between atoms: _266  and  _267
REMARK  108  A    between atoms: _272  and  _274
REMARK  109  A    between atoms: _274  and  _275
REMARK  110  A    between atoms: _274  and  _277
REMARK  111  A    between atoms: _277  and  _278
REMARK  112  A    between atoms: _283  and  _284
REMARK  113  A    between atoms: _286  and  _288
REMARK  114  A    between atoms: _288  and  _289
REMARK  115  A    between atoms: _288  and  _291
REMARK  116  A    between atoms: _291  and  _292
REMARK  117  A    between atoms: _297  and  _298
REMARK  118  A    between atoms: _300  and  _302
REMARK  119  A    between atoms: _302  and  _303
REMARK  120  A    between atoms: _302  and  _305
REMARK  121  A    between atoms: _305  and  _306
REMARK  122  A    between atoms: _309  and  _311
REMARK  123  A    between atoms: _311  and  _312
REMARK                            x       y       z     vdW  Elec       q    Type
REMARK                         _______ _______ _______ _____ _____    ______ ____
ROOT
ATOM      1  CG  TRP A   1       3.611   7.654  -0.526  0.00  0.00    -0.002 A 
ATOM      2  CD1 TRP A   1       4.556   6.761  -0.063  0.00  0.00    +0.068 A 
ATOM      3  NE1 TRP A   1       3.943   5.732   0.630  0.00  0.00    -0.352 N 
ATOM      4  HE1 TRP A   1       4.429   4.929   1.077  0.00  0.00    +0.166 HD
ATOM      5  CE2 TRP A   1       2.592   5.946   0.630  0.00  0.00    +0.056 A 
ATOM      6  CZ2 TRP A   1       1.576   5.200   1.207  0.00  0.00    +0.017 A 
ATOM      7  CH2 TRP A   1       0.308   5.668   1.063  0.00  0.00    +0.001 A 
ATOM      8  CZ3 TRP A   1       0.035   6.848   0.357  0.00  0.00    +0.000 A 
ATOM      9  CE3 TRP A   1       1.029   7.597  -0.203  0.00  0.00    +0.001 A 
ATOM     10  CD2 TRP A   1       2.344   7.151  -0.077  0.00  0.00    +0.013 A 
ENDROOT
BRANCH   1  11
ATOM     11  CB  TRP A   1       3.874   8.928  -1.289  0.00  0.00    +0.053 C 
BRANCH  11  12
ATOM     12  CA  TRP A   1       2.970   9.269  -2.482  0.00  0.00    +0.137 C 
BRANCH  12  13
ATOM     13  N   TRP A   1       3.070   8.274  -3.553  0.00  0.00    -0.239 NA
ATOM     14  H   TRP A   1       2.271   7.632  -3.731  0.00  0.00    +0.142 HD
ENDBRANCH  12  13
BRANCH  12  15
ATOM     15  C   TRP A   1       3.373  10.655  -2.995  0.00  0.00    +0.224 C 
ATOM     16  O   TRP A   1       3.942  11.442  -2.239  0.00  0.00    -0.287 OA
ENDBRANCH  12  15
ENDBRANCH  11  12
ENDBRANCH   1  11
TORSDOF 4
REMARK  Name = ../refined-set-2016/3hzm/3hzm_pocket.pdb
REMARK  123 active torsions:
REMARK  status: ('A' for Active; 'I' for Inactive)
REMARK    1  A    between atoms: _1  and  _3
REMARK    2  A    between atoms: _3  and  _4
REMARK    3  A    between atoms: _3  and  _6
REMARK    4  A    between atoms: _6  and  _7
REMARK    5  A    between atoms: _10  and  _12
REMARK    6  A    between atoms: _12  and  _13
REMARK    7  A    between atoms: _12  and  _15
REMARK    8  A    between atoms: _15  and  _16
REMARK    9  A    between atoms: _21  and  _23
REMARK   10  A    between atoms: _23  and  _24
REMARK   11  A    between atoms: _23  and  _26
REMARK   12  A    between atoms: _26  and  _27
REMARK   13  A    between atoms: _27  and  _28
REMARK   14  A    between atoms: _28  and  _29
REMARK   15  A    between atoms: _38  and  _40
REMARK   16  A    between atoms: _40  and  _41
REMARK   17  A    between atoms: _40  and  _43
REMARK   18  A    between atoms: _43  and  _44
REMARK   19  A    between atoms: _47  and  _49
REMARK   20  A    between atoms: _49  and  _50
REMARK   21  A    between atoms: _49  and  _52
REMARK   22  A    between atoms: _52  and  _53
REMARK   23  A    between atoms: _58  and  _59
REMARK   24  A    between atoms: _61  and  _63
REMARK   25  A    between atoms: _63  and  _64
REMARK   26  A    between atoms: _63  and  _66
REMARK   27  A    between atoms: _66  and  _67
REMARK   28  A    between atoms: _77  and  _79
REMARK   29  A    between atoms: _79  and  _80
REMARK   30  A    between atoms: _79  and  _82
REMARK   31  A    between atoms: _82  and  _83
REMARK   32  A    between atoms: _83  and  _84
REMARK   33  A    between atoms: _84  and  _85
REMARK   34  A    between atoms: _85  and  _86
REMARK   35  A    between atoms: _90  and  _92
REMARK   36  A    between atoms: _92  and  _93
REMARK   37  A    between atoms: _92  and  _95
REMARK   38  A    between atoms: _95  and  _96
REMARK   39  A    between atoms: _96  and  _97
REMARK   40  A    between atoms: _102  and  _104
REMARK   41  A    between atoms: _104  and  _105
REMARK   42  A    between atoms: _104  and  _107
REMARK   43  A    between atoms: _107  and  _108
REMARK   44  A    between atoms: _110  and  _112
REMARK   45  A    between atoms: _112  and  _113
REMARK   46  A    between atoms: _112  and  _115
REMARK   47  A    between atoms: _115  and  _116
REMARK   48  A    between atoms: _121  and  _122
REMARK   49  A    between atoms: _124  and  _126
REMARK   50  A    between atoms: _126  and  _127
REMARK   51  A    between atoms: _126  and  _129
REMARK   52  A    between atoms: _129  and  _130
REMARK   53  A    between atoms: _135  and  _137
REMARK   54  A    between atoms: _137  and  _138
REMARK   55  A    between atoms: _137  and  _140
REMARK   56  A    between atoms: _140  and  _141
REMARK   57  A    between atoms: _144  and  _146
REMARK   58  A    between atoms: _146  and  _147
REMARK   59  A    between atoms: _146  and  _149
REMARK   60  A    between atoms: _149  and  _150
REMARK   61  A    between atoms: _150  and  _151
REMARK   62  A    between atoms: _151  and  _152
REMARK   63  A    between atoms: _161  and  _163
REMARK   64  A    between atoms: _163  and  _164
REMARK   65  A    between atoms: _163  and  _166
REMARK   66  A    between atoms: _166  and  _167
REMARK   67  A    between atoms: _172  and  _173
REMARK   68  A    between atoms: _175  and  _177
REMARK   69  A    between atoms: _177  and  _178
REMARK   70  A    between atoms: _177  and  _180
REMARK   71  A    between atoms: _180  and  _181
REMARK   72  A    between atoms: _187  and  _189
REMARK   73  A    between atoms: _189  and  _190
REMARK   74  A    between atoms: _189  and  _192
REMARK   75  A    between atoms: _192  and  _193
REMARK   76  A    between atoms: _193  and  _194
REMARK   77  A    between atoms: _194  and  _195
REMARK   78  A    between atoms: _204  and  _206
REMARK   79  A    between atoms: _206  and  _207
REMARK   80  A    between atoms: _206  and  _209
REMARK   81  A    between atoms: _209  and  _210
REMARK   82  A    between atoms: _215  and  _217
REMARK   83  A    between atoms: _217  and  _218
REMARK   84  A    between atoms: _217  and  _220
REMARK   85  A    between atoms: _220  and  _221
REMARK   86  A    between atoms: _221  and  _222
REMARK   87  A    between atoms: _222  and  _223
REMARK   88  A    between atoms: _223  and  _224
REMARK   89  A    between atoms: _228  and  _230
REMARK   90  A    between atoms: _230  and  _231
REMARK   91  A    between atoms: _230  and  _233
REMARK   92  A    between atoms: _233  and  _234
REMARK   93  A    between atoms: _237  and  _239
REMARK   94  A    between atoms: _239  and  _240
REMARK   95  A    between atoms: _239  and  _242
REMARK   96  A    between atoms: _242  and  _243
REMARK   97  A    between atoms: _243  and  _244
REMARK   98  A    between atoms: _244  and  _246
REMARK   99  A    between atoms: _247  and  _249
REMARK  100  A    between atoms: _249  and  _250
REMARK  101  A    between atoms: _249  and  _252
REMARK  102  A    between atoms: _252  and  _253
REMARK  103  A    between atoms: _256  and  _258
REMARK  104  A    between atoms: _258  and  _259
REMARK  105  A    between atoms: _258  and  _261
REMARK  106  A    between atoms: _261  and  _262
REMARK  107  A    between atoms: _266  and  _267
REMARK  108  A    between atoms: _272  and  _274
REMARK  109  A    between atoms: _274  and  _275
REMARK  110  A    between atoms: _274  and  _277
REMARK  111  A    between atoms: _277  and  _278
REMARK  112  A    between atoms: _283  and  _284
REMARK  113  A    between atoms: _286  and  _288
REMARK  114  A    between atoms: _288  and  _289
REMARK  115  A    between atoms: _288  and  _291
REMARK  116  A    between atoms: _291  and  _292
REMARK  117  A    between atoms: _297  and  _298
REMARK  118  A    between atoms: _300  and  _302
REMARK  119  A    between atoms: _302  and  _303
REMARK  120  A    between atoms: _302  and  _305
REMARK  121  A    between atoms: _305  and  _306
REMARK  122  A    between atoms: _309  and  _311
REMARK  123  A    between atoms: _311  and  _312
REMARK                            x       y       z     vdW  Elec       q    Type
REMARK                         _______ _______ _______ _____ _____    ______ ____
ROOT
ATOM      1  CA  TYR A   4      -7.434   8.262  -2.191  0.00  0.00    +0.153 C 
ENDROOT
BRANCH   1   2
ATOM      2  C   TYR A   4      -8.797   7.607  -1.952  0.00  0.00    +0.241 C 
ATOM      3  O   TYR A   4      -9.195   7.323  -0.814  0.00  0.00    -0.273 OA
ATOM      4  N   ASN A   5      -9.496   7.368  -3.051  0.00  0.00    -0.297 N 
ATOM      5  H   ASN A   5      -9.055   7.579  -3.969  0.00  0.00    +0.150 HD
BRANCH   4   6
ATOM      6  CA  ASN A   5     -10.847   6.827  -3.047  0.00  0.00    +0.158 C 
BRANCH   6   7
ATOM      7  C   ASN A   5     -10.953   5.916  -4.280  0.00  0.00    +0.241 C 
ATOM      8  N   LEU A   6     -10.786   4.614  -4.067  0.00  0.00    -0.297 N 
ATOM      9  H   LEU A   6     -10.811   4.251  -3.093  0.00  0.00    +0.150 HD
ATOM     10  O   ASN A   5     -11.210   6.393  -5.399  0.00  0.00    -0.273 OA
BRANCH   8  11
ATOM     11  CA  LEU A   6     -10.565   3.670  -5.184  0.00  0.00    +0.149 C 
BRANCH  11  12
ATOM     12  C   LEU A   6      -9.376   4.165  -6.034  0.00  0.00    +0.241 C 
ATOM     13  O   LEU A   6      -8.384   4.617  -5.475  0.00  0.00    -0.273 OA
ATOM     14  N   ARG A   7      -9.447   4.059  -7.366  0.00  0.00    -0.298 N 
ATOM     15  H   ARG A   7     -10.260   3.581  -7.805  0.00  0.00    +0.150 HD
BRANCH  14  16
ATOM     16  CA  ARG A   7      -8.374   4.619  -8.217  0.00  0.00    +0.137 C 
BRANCH  16  17
ATOM     17  C   ARG A   7      -8.953   5.255  -9.472  0.00  0.00    +0.227 C 
ATOM     18  O   ARG A   7      -9.891   4.719 -10.059  0.00  0.00    -0.286 OA
ENDBRANCH  16  17
BRANCH  16  19
ATOM     19  CB  ARG A   7      -7.391   3.512  -8.657  0.00  0.00    +0.031 C 
BRANCH  19  20
ATOM     20  CG  ARG A   7      -6.574   2.894  -7.525  0.00  0.00    +0.045 C 
BRANCH  20  21
ATOM     21  CD  ARG A   7      -7.344   1.764  -6.849  0.00  0.00    +0.174 C 
BRANCH  21  22
ATOM     22  NE  ARG A   7      -6.523   1.051  -5.867  0.00  0.00    -0.265 N 
ATOM     23  CZ  ARG A   7      -6.299   1.471  -4.620  0.00  0.00    +0.342 C 
ATOM     24  NH2 ARG A   7      -5.542   0.749  -3.801  0.00  0.00    -0.292 N 
ATOM     25 HH21 ARG A   7      -5.368   1.077  -2.829  0.00  0.00    +0.255 HD
ATOM     26 HH22 ARG A   7      -5.124  -0.144  -4.131  0.00  0.00    +0.255 HD
ATOM     27  NH1 ARG A   7      -6.808   2.623  -4.191  0.00  0.00    -0.292 N 
ATOM     28 HH11 ARG A   7      -6.627   2.941  -3.217  0.00  0.00    +0.255 HD
ATOM     29 HH12 ARG A   7      -7.387   3.206  -4.829  0.00  0.00    +0.255 HD
ATOM     30  HE  ARG A   7      -6.084   0.155  -6.162  0.00  0.00    +0.259 HD
ENDBRANCH  21  22
ENDBRANCH  20  21
ENDBRANCH  19  20
ENDBRANCH  16  19
ENDBRANCH  14  16
ENDBRANCH  11  12
BRANCH  11  31
ATOM     31  CB  LEU A   6     -11.839   3.473  -6.007  0.00  0.00    +0.029 C 
BRANCH  31  32
ATOM     32  CG  LEU A   6     -13.058   3.081  -5.145  0.00  0.00    +0.002 C 
ATOM     33  CD2 LEU A   6     -12.754   1.873  -4.249  0.00  0.00    +0.000 C 
ATOM     34  CD1 LEU A   6     -14.281   2.793  -6.008  0.00  0.00    +0.000 C 
ENDBRANCH  31  32
ENDBRANCH  11  31
ENDBRANCH   8  11
ENDBRANCH   6   7
BRANCH   6  35
ATOM     35  CB  ASN A   5     -11.854   7.984  -3.167  0.00  0.00    +0.114 C 
BRANCH  35  36
ATOM     36  CG  ASN A   5     -13.308   7.527  -3.109  0.00  0.00    +0.222 C 
ATOM     37  OD1 ASN A   5     -14.233   8.359  -3.067  0.00  0.00    -0.275 OA
ATOM     38  ND2 ASN A   5     -13.520   6.218  -3.088  0.00  0.00    -0.329 N 
ATOM     39 HD21 ASN A   5     -14.491   5.849  -3.034  0.00  0.00    +0.145 HD
ATOM     40 HD22 ASN A   5     -12.715   5.560  -3.125  0.00  0.00    +0.145 HD
ENDBRANCH  35  36
ENDBRANCH   6  35
ENDBRANCH   4   6
ENDBRANCH   1   2
BRANCH   1  43
ATOM     41  C   SER A   3      -6.310   6.540  -3.583  0.00  0.00    +0.243 C 
ATOM     42  O   SER A   3      -6.290   5.695  -2.710  0.00  0.00    -0.273 OA
ATOM     43  N   TYR A   4      -6.765   7.780  -3.410  0.00  0.00    -0.297 N 
ATOM     44  H   TYR A   4      -6.639   8.455  -4.191  0.00  0.00    +0.150 HD
BRANCH  41  45
ATOM     45  CA  SER A   3      -5.786   6.222  -4.987  0.00  0.00    +0.178 C 
BRANCH  45  47
ATOM     46  C   GLN A   2      -5.728   7.722  -6.899  0.00  0.00    +0.241 C 
ATOM     47  N   SER A   3      -5.381   7.456  -5.646  0.00  0.00    -0.295 N 
ATOM     48  H   SER A   3      -4.806   8.146  -5.122  0.00  0.00    +0.150 HD
ATOM     49  O   GLN A   2      -6.336   6.915  -7.604  0.00  0.00    -0.273 OA
BRANCH  46  50
ATOM     50  CA  GLN A   2      -5.305   9.081  -7.457  0.00  0.00    +0.149 C 
BRANCH  50  53
ATOM     51  C   LYS A   1      -3.741   8.665  -9.254  0.00  0.00    +0.238 C 
ATOM     52  O   LYS A   1      -2.831   8.585  -8.476  0.00  0.00    -0.274 OA
ATOM     53  N   GLN A   2      -4.986   8.925  -8.873  0.00  0.00    -0.297 N 
ATOM     54  H   GLN A   2      -5.737   9.018  -9.586  0.00  0.00    +0.150 HD
BRANCH  51  55
ATOM     55  CA  LYS A   1      -3.494   8.430 -10.731  0.00  0.00    +0.145 C 
BRANCH  55  56
ATOM     56  N   LYS A   1      -2.387   9.279 -11.188  0.00  0.00    -0.238 NA
ATOM     57  H   LYS A   1      -1.669   9.603 -10.509  0.00  0.00    +0.142 HD
ENDBRANCH  55  56
BRANCH  55  58
ATOM     58  CB  LYS A   1      -3.135   6.956 -10.964  0.00  0.00    +0.026 C 
BRANCH  58  59
ATOM     59  CG  LYS A   1      -4.218   5.913 -10.608  0.00  0.00    -0.000 C 
BRANCH  59  60
ATOM     60  CD  LYS A   1      -3.560   4.653  -9.926  0.00  0.00    -0.024 C 
BRANCH  60  61
ATOM     61  CE  LYS A   1      -3.218   5.010  -8.479  0.00  0.00    -0.086 C 
BRANCH  61  62
ATOM     62  NZ  LYS A   1      -1.986   4.319  -7.933  0.00  0.00    +0.380 N 
ATOM     63  HZ1 LYS A   1      -1.829   4.618  -6.949  0.00  0.00    -0.089 HD
ATOM     64  HZ2 LYS A   1      -2.125   3.289  -7.965  0.00  0.00    -0.089 HD
ATOM     65  HZ3 LYS A   1      -1.161   4.577  -8.511  0.00  0.00    -0.089 HD
ENDBRANCH  61  62
ENDBRANCH  60  61
ENDBRANCH  59  60
ENDBRANCH  58  59
ENDBRANCH  55  58
ENDBRANCH  51  55
ENDBRANCH  50  53
BRANCH  50  66
ATOM     66  CB  GLN A   2      -6.429  10.111  -7.255  0.00  0.00    +0.039 C 
BRANCH  66  67
ATOM     67  CG  GLN A   2      -7.802   9.671  -7.803  0.00  0.00    +0.087 C 
BRANCH  67  68
ATOM     68  CD  GLN A   2      -8.589   8.774  -6.833  0.00  0.00    +0.219 C 
ATOM     69  OE1 GLN A   2      -8.298   8.719  -5.636  0.00  0.00    -0.275 OA
ATOM     70  NE2 GLN A   2      -9.584   8.069  -7.359  0.00  0.00    -0.329 N 
ATOM     71 HE21 GLN A   2     -10.152   7.440  -6.756  0.00  0.00    +0.145 HD
ATOM     72 HE22 GLN A   2      -9.795   8.145  -8.374  0.00  0.00    +0.145 HD
ENDBRANCH  67  68
ENDBRANCH  66  67
ENDBRANCH  50  66
ENDBRANCH  46  50
ENDBRANCH  45  47
BRANCH  45  73
ATOM     73  CB  SER A   3      -4.642   5.210  -4.916  0.00  0.00    +0.166 C 
BRANCH  73  74
ATOM     74  OG  SER A   3      -3.523   5.739  -4.227  0.00  0.00    -0.380 OA
ATOM     75  H   SER A   3      -2.803   5.060  -4.199  0.00  0.00    +0.211 HD
ENDBRANCH  73  74
ENDBRANCH  45  73
ENDBRANCH  41  45
ENDBRANCH   1  43
BRANCH   1  76
ATOM     76  CB  TYR A   4      -7.638   9.752  -2.330  0.00  0.00    +0.055 C 
BRANCH  76  77
ATOM     77  CG  TYR A   4      -8.076  10.424  -1.052  0.00  0.00    -0.020 A 
ATOM     78  CD2 TYR A   4      -7.144  10.829  -0.112  0.00  0.00    -0.001 A 
ATOM     79  CE2 TYR A   4      -7.527  11.446   1.056  0.00  0.00    +0.036 A 
ATOM     80  CZ  TYR A   4      -8.860  11.665   1.305  0.00  0.00    +0.134 A 
ATOM     81  CE1 TYR A   4      -9.817  11.276   0.388  0.00  0.00    +0.036 A 
ATOM     82  CD1 TYR A   4      -9.420  10.655  -0.790  0.00  0.00    -0.001 A 
BRANCH  80  83
ATOM     83  OH  TYR A   4      -9.227  12.292   2.481  0.00  0.00    -0.506 OA
ATOM     84  HH  TYR A   4      -8.417  12.496   3.011  0.00  0.00    +0.292 HD
ENDBRANCH  80  83
ENDBRANCH  76  77
ENDBRANCH   1  76
TORSDOF 35
REMARK  Name = ../refined-set-2016/3hzm/3hzm_pocket.pdb
REMARK  123 active torsions:
REMARK  status: ('A' for Active; 'I' for Inactive)
REMARK    1  A    between atoms: _1  and  _3
REMARK    2  A    between atoms: _3  and  _4
REMARK    3  A    between atoms: _3  and  _6
REMARK    4  A    between atoms: _6  and  _7
REMARK    5  A    between atoms: _10  and  _12
REMARK    6  A    between atoms: _12  and  _13
REMARK    7  A    between atoms: _12  and  _15
REMARK    8  A    between atoms: _15  and  _16
REMARK    9  A    between atoms: _21  and  _23
REMARK   10  A    between atoms: _23  and  _24
REMARK   11  A    between atoms: _23  and  _26
REMARK   12  A    between atoms: _26  and  _27
REMARK   13  A    between atoms: _27  and  _28
REMARK   14  A    between atoms: _28  and  _29
REMARK   15  A    between atoms: _38  and  _40
REMARK   16  A    between atoms: _40  and  _41
REMARK   17  A    between atoms: _40  and  _43
REMARK   18  A    between atoms: _43  and  _44
REMARK   19  A    between atoms: _47  and  _49
REMARK   20  A    between atoms: _49  and  _50
REMARK   21  A    between atoms: _49  and  _52
REMARK   22  A    between atoms: _52  and  _53
REMARK   23  A    between atoms: _58  and  _59
REMARK   24  A    between atoms: _61  and  _63
REMARK   25  A    between atoms: _63  and  _64
REMARK   26  A    between atoms: _63  and  _66
REMARK   27  A    between atoms: _66  and  _67
REMARK   28  A    between atoms: _77  and  _79
REMARK   29  A    between atoms: _79  and  _80
REMARK   30  A    between atoms: _79  and  _82
REMARK   31  A    between atoms: _82  and  _83
REMARK   32  A    between atoms: _83  and  _84
REMARK   33  A    between atoms: _84  and  _85
REMARK   34  A    between atoms: _85  and  _86
REMARK   35  A    between atoms: _90  and  _92
REMARK   36  A    between atoms: _92  and  _93
REMARK   37  A    between atoms: _92  and  _95
REMARK   38  A    between atoms: _95  and  _96
REMARK   39  A    between atoms: _96  and  _97
REMARK   40  A    between atoms: _102  and  _104
REMARK   41  A    between atoms: _104  and  _105
REMARK   42  A    between atoms: _104  and  _107
REMARK   43  A    between atoms: _107  and  _108
REMARK   44  A    between atoms: _110  and  _112
REMARK   45  A    between atoms: _112  and  _113
REMARK   46  A    between atoms: _112  and  _115
REMARK   47  A    between atoms: _115  and  _116
REMARK   48  A    between atoms: _121  and  _122
REMARK   49  A    between atoms: _124  and  _126
REMARK   50  A    between atoms: _126  and  _127
REMARK   51  A    between atoms: _126  and  _129
REMARK   52  A    between atoms: _129  and  _130
REMARK   53  A    between atoms: _135  and  _137
REMARK   54  A    between atoms: _137  and  _138
REMARK   55  A    between atoms: _137  and  _140
REMARK   56  A    between atoms: _140  and  _141
REMARK   57  A    between atoms: _144  and  _146
REMARK   58  A    between atoms: _146  and  _147
REMARK   59  A    between atoms: _146  and  _149
REMARK   60  A    between atoms: _149  and  _150
REMARK   61  A    between atoms: _150  and  _151
REMARK   62  A    between atoms: _151  and  _152
REMARK   63  A    between atoms: _161  and  _163
REMARK   64  A    between atoms: _163  and  _164
REMARK   65  A    between atoms: _163  and  _166
REMARK   66  A    between atoms: _166  and  _167
REMARK   67  A    between atoms: _172  and  _173
REMARK   68  A    between atoms: _175  and  _177
REMARK   69  A    between atoms: _177  and  _178
REMARK   70  A    between atoms: _177  and  _180
REMARK   71  A    between atoms: _180  and  _181
REMARK   72  A    between atoms: _187  and  _189
REMARK   73  A    between atoms: _189  and  _190
REMARK   74  A    between atoms: _189  and  _192
REMARK   75  A    between atoms: _192  and  _193
REMARK   76  A    between atoms: _193  and  _194
REMARK   77  A    between atoms: _194  and  _195
REMARK   78  A    between atoms: _204  and  _206
REMARK   79  A    between atoms: _206  and  _207
REMARK   80  A    between atoms: _206  and  _209
REMARK   81  A    between atoms: _209  and  _210
REMARK   82  A    between atoms: _215  and  _217
REMARK   83  A    between atoms: _217  and  _218
REMARK   84  A    between atoms: _217  and  _220
REMARK   85  A    between atoms: _220  and  _221
REMARK   86  A    between atoms: _221  and  _222
REMARK   87  A    between atoms: _222  and  _223
REMARK   88  A    between atoms: _223  and  _224
REMARK   89  A    between atoms: _228  and  _230
REMARK   90  A    between atoms: _230  and  _231
REMARK   91  A    between atoms: _230  and  _233
REMARK   92  A    between atoms: _233  and  _234
REMARK   93  A    between atoms: _237  and  _239
REMARK   94  A    between atoms: _239  and  _240
REMARK   95  A    between atoms: _239  and  _242
REMARK   96  A    between atoms: _242  and  _243
REMARK   97  A    between atoms: _243  and  _244
REMARK   98  A    between atoms: _244  and  _246
REMARK   99  A    between atoms: _247  and  _249
REMARK  100  A    between atoms: _249  and  _250
REMARK  101  A    between atoms: _249  and  _252
REMARK  102  A    between atoms: _252  and  _253
REMARK  103  A    between atoms: _256  and  _258
REMARK  104  A    between atoms: _258  and  _259
REMARK  105  A    between atoms: _258  and  _261
REMARK  106  A    between atoms: _261  and  _262
REMARK  107  A    between atoms: _266  and  _267
REMARK  108  A    between atoms: _272  and  _274
REMARK  109  A    between atoms: _274  and  _275
REMARK  110  A    between atoms: _274  and  _277
REMARK  111  A    between atoms: _277  and  _278
REMARK  112  A    between atoms: _283  and  _284
REMARK  113  A    between atoms: _286  and  _288
REMARK  114  A    between atoms: _288  and  _289
REMARK  115  A    between atoms: _288  and  _291
REMARK  116  A    between atoms: _291  and  _292
REMARK  117  A    between atoms: _297  and  _298
REMARK  118  A    between atoms: _300  and  _302
REMARK  119  A    between atoms: _302  and  _303
REMARK  120  A    between atoms: _302  and  _305
REMARK  121  A    between atoms: _305  and  _306
REMARK  122  A    between atoms: _309  and  _311
REMARK  123  A    between atoms: _311  and  _312
REMARK                            x       y       z     vdW  Elec       q    Type
REMARK                         _______ _______ _______ _____ _____    ______ ____
ROOT
ATOM      1  CG  TYR A   1      -5.971  -4.300  -1.841  0.00  0.00    -0.020 A 
ATOM      2  CD2 TYR A   1      -5.616  -4.812  -0.603  0.00  0.00    -0.001 A 
ATOM      3  CE2 TYR A   1      -6.147  -4.258   0.583  0.00  0.00    +0.036 A 
ATOM      4  CZ  TYR A   1      -7.002  -3.170   0.505  0.00  0.00    +0.134 A 
ATOM      5  CE1 TYR A   1      -7.329  -2.644  -0.720  0.00  0.00    +0.036 A 
ATOM      6  CD1 TYR A   1      -6.812  -3.197  -1.874  0.00  0.00    -0.001 A 
ENDROOT
BRANCH   4   7
ATOM      7  OH  TYR A   1      -7.536  -2.562   1.641  0.00  0.00    -0.506 OA
ATOM      8  HH  TYR A   1      -8.524  -2.599   1.600  0.00  0.00    +0.292 HD
ENDBRANCH   4   7
BRANCH   1   9
ATOM      9  CB  TYR A   1      -5.392  -4.844  -3.130  0.00  0.00    +0.051 C 
BRANCH   9  10
ATOM     10  CA  TYR A   1      -5.142  -6.338  -3.238  0.00  0.00    +0.137 C 
BRANCH  10  11
ATOM     11  N   TYR A   1      -4.031  -6.747  -2.367  0.00  0.00    -0.239 NA
ATOM     12  H   TYR A   1      -3.577  -6.048  -1.745  0.00  0.00    +0.142 HD
ENDBRANCH  10  11
BRANCH  10  13
ATOM     13  C   TYR A   1      -4.705  -6.594  -4.696  0.00  0.00    +0.224 C 
ATOM     14  O   TYR A   1      -3.516  -6.468  -5.022  0.00  0.00    -0.287 OA
ENDBRANCH  10  13
ENDBRANCH   9  10
ENDBRANCH   1   9
TORSDOF 5
REMARK  Name = ../refined-set-2016/3hzm/3hzm_pocket.pdb
REMARK  123 active torsions:
REMARK  status: ('A' for Active; 'I' for Inactive)
REMARK    1  A    between atoms: _1  and  _3
REMARK    2  A    between atoms: _3  and  _4
REMARK    3  A    between atoms: _3  and  _6
REMARK    4  A    between atoms: _6  and  _7
REMARK    5  A    between atoms: _10  and  _12
REMARK    6  A    between atoms: _12  and  _13
REMARK    7  A    between atoms: _12  and  _15
REMARK    8  A    between atoms: _15  and  _16
REMARK    9  A    between atoms: _21  and  _23
REMARK   10  A    between atoms: _23  and  _24
REMARK   11  A    between atoms: _23  and  _26
REMARK   12  A    between atoms: _26  and  _27
REMARK   13  A    between atoms: _27  and  _28
REMARK   14  A    between atoms: _28  and  _29
REMARK   15  A    between atoms: _38  and  _40
REMARK   16  A    between atoms: _40  and  _41
REMARK   17  A    between atoms: _40  and  _43
REMARK   18  A    between atoms: _43  and  _44
REMARK   19  A    between atoms: _47  and  _49
REMARK   20  A    between atoms: _49  and  _50
REMARK   21  A    between atoms: _49  and  _52
REMARK   22  A    between atoms: _52  and  _53
REMARK   23  A    between atoms: _58  and  _59
REMARK   24  A    between atoms: _61  and  _63
REMARK   25  A    between atoms: _63  and  _64
REMARK   26  A    between atoms: _63  and  _66
REMARK   27  A    between atoms: _66  and  _67
REMARK   28  A    between atoms: _77  and  _79
REMARK   29  A    between atoms: _79  and  _80
REMARK   30  A    between atoms: _79  and  _82
REMARK   31  A    between atoms: _82  and  _83
REMARK   32  A    between atoms: _83  and  _84
REMARK   33  A    between atoms: _84  and  _85
REMARK   34  A    between atoms: _85  and  _86
REMARK   35  A    between atoms: _90  and  _92
REMARK   36  A    between atoms: _92  and  _93
REMARK   37  A    between atoms: _92  and  _95
REMARK   38  A    between atoms: _95  and  _96
REMARK   39  A    between atoms: _96  and  _97
REMARK   40  A    between atoms: _102  and  _104
REMARK   41  A    between atoms: _104  and  _105
REMARK   42  A    between atoms: _104  and  _107
REMARK   43  A    between atoms: _107  and  _108
REMARK   44  A    between atoms: _110  and  _112
REMARK   45  A    between atoms: _112  and  _113
REMARK   46  A    between atoms: _112  and  _115
REMARK   47  A    between atoms: _115  and  _116
REMARK   48  A    between atoms: _121  and  _122
REMARK   49  A    between atoms: _124  and  _126
REMARK   50  A    between atoms: _126  and  _127
REMARK   51  A    between atoms: _126  and  _129
REMARK   52  A    between atoms: _129  and  _130
REMARK   53  A    between atoms: _135  and  _137
REMARK   54  A    between atoms: _137  and  _138
REMARK   55  A    between atoms: _137  and  _140
REMARK   56  A    between atoms: _140  and  _141
REMARK   57  A    between atoms: _144  and  _146
REMARK   58  A    between atoms: _146  and  _147
REMARK   59  A    between atoms: _146  and  _149
REMARK   60  A    between atoms: _149  and  _150
REMARK   61  A    between atoms: _150  and  _151
REMARK   62  A    between atoms: _151  and  _152
REMARK   63  A    between atoms: _161  and  _163
REMARK   64  A    between atoms: _163  and  _164
REMARK   65  A    between atoms: _163  and  _166
REMARK   66  A    between atoms: _166  and  _167
REMARK   67  A    between atoms: _172  and  _173
REMARK   68  A    between atoms: _175  and  _177
REMARK   69  A    between atoms: _177  and  _178
REMARK   70  A    between atoms: _177  and  _180
REMARK   71  A    between atoms: _180  and  _181
REMARK   72  A    between atoms: _187  and  _189
REMARK   73  A    between atoms: _189  and  _190
REMARK   74  A    between atoms: _189  and  _192
REMARK   75  A    between atoms: _192  and  _193
REMARK   76  A    between atoms: _193  and  _194
REMARK   77  A    between atoms: _194  and  _195
REMARK   78  A    between atoms: _204  and  _206
REMARK   79  A    between atoms: _206  and  _207
REMARK   80  A    between atoms: _206  and  _209
REMARK   81  A    between atoms: _209  and  _210
REMARK   82  A    between atoms: _215  and  _217
REMARK   83  A    between atoms: _217  and  _218
REMARK   84  A    between atoms: _217  and  _220
REMARK   85  A    between atoms: _220  and  _221
REMARK   86  A    between atoms: _221  and  _222
REMARK   87  A    between atoms: _222  and  _223
REMARK   88  A    between atoms: _223  and  _224
REMARK   89  A    between atoms: _228  and  _230
REMARK   90  A    between atoms: _230  and  _231
REMARK   91  A    between atoms: _230  and  _233
REMARK   92  A    between atoms: _233  and  _234
REMARK   93  A    between atoms: _237  and  _239
REMARK   94  A    between atoms: _239  and  _240
REMARK   95  A    between atoms: _239  and  _242
REMARK   96  A    between atoms: _242  and  _243
REMARK   97  A    between atoms: _243  and  _244
REMARK   98  A    between atoms: _244  and  _246
REMARK   99  A    between atoms: _247  and  _249
REMARK  100  A    between atoms: _249  and  _250
REMARK  101  A    between atoms: _249  and  _252
REMARK  102  A    between atoms: _252  and  _253
REMARK  103  A    between atoms: _256  and  _258
REMARK  104  A    between atoms: _258  and  _259
REMARK  105  A    between atoms: _258  and  _261
REMARK  106  A    between atoms: _261  and  _262
REMARK  107  A    between atoms: _266  and  _267
REMARK  108  A    between atoms: _272  and  _274
REMARK  109  A    between atoms: _274  and  _275
REMARK  110  A    between atoms: _274  and  _277
REMARK  111  A    between atoms: _277  and  _278
REMARK  112  A    between atoms: _283  and  _284
REMARK  113  A    between atoms: _286  and  _288
REMARK  114  A    between atoms: _288  and  _289
REMARK  115  A    between atoms: _288  and  _291
REMARK  116  A    between atoms: _291  and  _292
REMARK  117  A    between atoms: _297  and  _298
REMARK  118  A    between atoms: _300  and  _302
REMARK  119  A    between atoms: _302  and  _303
REMARK  120  A    between atoms: _302  and  _305
REMARK  121  A    between atoms: _305  and  _306
REMARK  122  A    between atoms: _309  and  _311
REMARK  123  A    between atoms: _311  and  _312
REMARK                            x       y       z     vdW  Elec       q    Type
REMARK                         _______ _______ _______ _____ _____    ______ ____
ROOT
ATOM      1  CB  PHE A   1      -9.002  -3.438  -6.522  0.00  0.00    +0.051 C 
ENDROOT
BRANCH   1   2
ATOM      2  CG  PHE A   1      -9.467  -2.565  -5.348  0.00  0.00    -0.020 A 
ATOM      3  CD2 PHE A   1     -10.189  -3.081  -4.271  0.00  0.00    -0.004 A 
ATOM      4  CE2 PHE A   1     -10.563  -2.251  -3.183  0.00  0.00    -0.000 A 
ATOM      5  CZ  PHE A   1     -10.194  -0.923  -3.165  0.00  0.00    -0.000 A 
ATOM      6  CE1 PHE A   1      -9.458  -0.396  -4.228  0.00  0.00    -0.000 A 
ATOM      7  CD1 PHE A   1      -9.087  -1.226  -5.299  0.00  0.00    -0.004 A 
ENDBRANCH   1   2
BRANCH   1   8
ATOM      8  CA  PHE A   1     -10.077  -4.356  -7.167  0.00  0.00    +0.137 C 
BRANCH   8   9
ATOM      9  N   PHE A   1     -11.062  -3.647  -7.975  0.00  0.00    -0.239 NA
ATOM     10  H   PHE A   1     -11.951  -3.313  -7.551  0.00  0.00    +0.142 HD
ENDBRANCH   8   9
BRANCH   8  11
ATOM     11  C   PHE A   1     -10.712  -5.360  -6.211  0.00  0.00    +0.224 C 
ATOM     12  O   PHE A   1     -11.918  -5.312  -5.964  0.00  0.00    -0.287 OA
ENDBRANCH   8  11
ENDBRANCH   1   8
TORSDOF 4
REMARK  Name = ../refined-set-2016/3hzm/3hzm_pocket.pdb
REMARK  123 active torsions:
REMARK  status: ('A' for Active; 'I' for Inactive)
REMARK    1  A    between atoms: _1  and  _3
REMARK    2  A    between atoms: _3  and  _4
REMARK    3  A    between atoms: _3  and  _6
REMARK    4  A    between atoms: _6  and  _7
REMARK    5  A    between atoms: _10  and  _12
REMARK    6  A    between atoms: _12  and  _13
REMARK    7  A    between atoms: _12  and  _15
REMARK    8  A    between atoms: _15  and  _16
REMARK    9  A    between atoms: _21  and  _23
REMARK   10  A    between atoms: _23  and  _24
REMARK   11  A    between atoms: _23  and  _26
REMARK   12  A    between atoms: _26  and  _27
REMARK   13  A    between atoms: _27  and  _28
REMARK   14  A    between atoms: _28  and  _29
REMARK   15  A    between atoms: _38  and  _40
REMARK   16  A    between atoms: _40  and  _41
REMARK   17  A    between atoms: _40  and  _43
REMARK   18  A    between atoms: _43  and  _44
REMARK   19  A    between atoms: _47  and  _49
REMARK   20  A    between atoms: _49  and  _50
REMARK   21  A    between atoms: _49  and  _52
REMARK   22  A    between atoms: _52  and  _53
REMARK   23  A    between atoms: _58  and  _59
REMARK   24  A    between atoms: _61  and  _63
REMARK   25  A    between atoms: _63  and  _64
REMARK   26  A    between atoms: _63  and  _66
REMARK   27  A    between atoms: _66  and  _67
REMARK   28  A    between atoms: _77  and  _79
REMARK   29  A    between atoms: _79  and  _80
REMARK   30  A    between atoms: _79  and  _82
REMARK   31  A    between atoms: _82  and  _83
REMARK   32  A    between atoms: _83  and  _84
REMARK   33  A    between atoms: _84  and  _85
REMARK   34  A    between atoms: _85  and  _86
REMARK   35  A    between atoms: _90  and  _92
REMARK   36  A    between atoms: _92  and  _93
REMARK   37  A    between atoms: _92  and  _95
REMARK   38  A    between atoms: _95  and  _96
REMARK   39  A    between atoms: _96  and  _97
REMARK   40  A    between atoms: _102  and  _104
REMARK   41  A    between atoms: _104  and  _105
REMARK   42  A    between atoms: _104  and  _107
REMARK   43  A    between atoms: _107  and  _108
REMARK   44  A    between atoms: _110  and  _112
REMARK   45  A    between atoms: _112  and  _113
REMARK   46  A    between atoms: _112  and  _115
REMARK   47  A    between atoms: _115  and  _116
REMARK   48  A    between atoms: _121  and  _122
REMARK   49  A    between atoms: _124  and  _126
REMARK   50  A    between atoms: _126  and  _127
REMARK   51  A    between atoms: _126  and  _129
REMARK   52  A    between atoms: _129  and  _130
REMARK   53  A    between atoms: _135  and  _137
REMARK   54  A    between atoms: _137  and  _138
REMARK   55  A    between atoms: _137  and  _140
REMARK   56  A    between atoms: _140  and  _141
REMARK   57  A    between atoms: _144  and  _146
REMARK   58  A    between atoms: _146  and  _147
REMARK   59  A    between atoms: _146  and  _149
REMARK   60  A    between atoms: _149  and  _150
REMARK   61  A    between atoms: _150  and  _151
REMARK   62  A    between atoms: _151  and  _152
REMARK   63  A    between atoms: _161  and  _163
REMARK   64  A    between atoms: _163  and  _164
REMARK   65  A    between atoms: _163  and  _166
REMARK   66  A    between atoms: _166  and  _167
REMARK   67  A    between atoms: _172  and  _173
REMARK   68  A    between atoms: _175  and  _177
REMARK   69  A    between atoms: _177  and  _178
REMARK   70  A    between atoms: _177  and  _180
REMARK   71  A    between atoms: _180  and  _181
REMARK   72  A    between atoms: _187  and  _189
REMARK   73  A    between atoms: _189  and  _190
REMARK   74  A    between atoms: _189  and  _192
REMARK   75  A    between atoms: _192  and  _193
REMARK   76  A    between atoms: _193  and  _194
REMARK   77  A    between atoms: _194  and  _195
REMARK   78  A    between atoms: _204  and  _206
REMARK   79  A    between atoms: _206  and  _207
REMARK   80  A    between atoms: _206  and  _209
REMARK   81  A    between atoms: _209  and  _210
REMARK   82  A    between atoms: _215  and  _217
REMARK   83  A    between atoms: _217  and  _218
REMARK   84  A    between atoms: _217  and  _220
REMARK   85  A    between atoms: _220  and  _221
REMARK   86  A    between atoms: _221  and  _222
REMARK   87  A    between atoms: _222  and  _223
REMARK   88  A    between atoms: _223  and  _224
REMARK   89  A    between atoms: _228  and  _230
REMARK   90  A    between atoms: _230  and  _231
REMARK   91  A    between atoms: _230  and  _233
REMARK   92  A    between atoms: _233  and  _234
REMARK   93  A    between atoms: _237  and  _239
REMARK   94  A    between atoms: _239  and  _240
REMARK   95  A    between atoms: _239  and  _242
REMARK   96  A    between atoms: _242  and  _243
REMARK   97  A    between atoms: _243  and  _244
REMARK   98  A    between atoms: _244  and  _246
REMARK   99  A    between atoms: _247  and  _249
REMARK  100  A    between atoms: _249  and  _250
REMARK  101  A    between atoms: _249  and  _252
REMARK  102  A    between atoms: _252  and  _253
REMARK  103  A    between atoms: _256  and  _258
REMARK  104  A    between atoms: _258  and  _259
REMARK  105  A    between atoms: _258  and  _261
REMARK  106  A    between atoms: _261  and  _262
REMARK  107  A    between atoms: _266  and  _267
REMARK  108  A    between atoms: _272  and  _274
REMARK  109  A    between atoms: _274  and  _275
REMARK  110  A    between atoms: _274  and  _277
REMARK  111  A    between atoms: _277  and  _278
REMARK  112  A    between atoms: _283  and  _284
REMARK  113  A    between atoms: _286  and  _288
REMARK  114  A    between atoms: _288  and  _289
REMARK  115  A    between atoms: _288  and  _291
REMARK  116  A    between atoms: _291  and  _292
REMARK  117  A    between atoms: _297  and  _298
REMARK  118  A    between atoms: _300  and  _302
REMARK  119  A    between atoms: _302  and  _303
REMARK  120  A    between atoms: _302  and  _305
REMARK  121  A    between atoms: _305  and  _306
REMARK  122  A    between atoms: _309  and  _311
REMARK  123  A    between atoms: _311  and  _312
REMARK                            x       y       z     vdW  Elec       q    Type
REMARK                         _______ _______ _______ _____ _____    ______ ____
ROOT
ATOM      1  CA  ARG A   1      -8.800  -6.734  -1.291  0.00  0.00    +0.145 C 
ENDROOT
BRANCH   1   2
ATOM      2  C   ARG A   1      -8.106  -8.023  -0.845  0.00  0.00    +0.238 C 
ATOM      3  N   ASN A   2      -7.145  -7.885   0.069  0.00  0.00    -0.298 N 
ATOM      4  H   ASN A   2      -6.950  -6.944   0.466  0.00  0.00    +0.150 HD
ATOM      5  O   ARG A   1      -8.415  -9.118  -1.345  0.00  0.00    -0.274 OA
BRANCH   3   6
ATOM      6  CA  ASN A   2      -6.367  -9.023   0.519  0.00  0.00    +0.146 C 
BRANCH   6   7
ATOM      7  C   ASN A   2      -7.081  -9.837   1.617  0.00  0.00    +0.227 C 
ATOM      8  O   ASN A   2      -8.257  -9.613   1.920  0.00  0.00    -0.286 OA
ENDBRANCH   6   7
BRANCH   6   9
ATOM      9  CB  ASN A   2      -5.014  -8.533   1.021  0.00  0.00    +0.112 C 
BRANCH   9  10
ATOM     10  CG  ASN A   2      -5.154  -7.565   2.174  0.00  0.00    +0.222 C 
ATOM     11  OD1 ASN A   2      -6.247  -7.414   2.732  0.00  0.00    -0.275 OA
ATOM     12  ND2 ASN A   2      -4.068  -6.894   2.529  0.00  0.00    -0.329 N 
ATOM     13 HD21 ASN A   2      -4.113  -6.206   3.307  0.00  0.00    +0.145 HD
ATOM     14 HD22 ASN A   2      -3.170  -7.056   2.029  0.00  0.00    +0.145 HD
ENDBRANCH   9  10
ENDBRANCH   6   9
ENDBRANCH   3   6
ENDBRANCH   1   2
BRANCH   1  15
ATOM     15  N   ARG A   1      -9.726  -6.966  -2.383  0.00  0.00    -0.238 NA
ATOM     16  H   ARG A   1     -10.748  -6.987  -2.192  0.00  0.00    +0.142 HD
ENDBRANCH   1  15
BRANCH   1  17
ATOM     17  CB  ARG A   1      -9.538  -6.062  -0.133  0.00  0.00    +0.030 C 
BRANCH  17  18
ATOM     18  CG  ARG A   1     -10.165  -4.724  -0.517  0.00  0.00    +0.045 C 
BRANCH  18  19
ATOM     19  CD  ARG A   1     -10.720  -4.029   0.716  0.00  0.00    +0.174 C 
BRANCH  19  20
ATOM     20  NE  ARG A   1     -11.075  -2.647   0.430  0.00  0.00    -0.265 N 
ATOM     21  HE  ARG A   1     -10.352  -1.916   0.588  0.00  0.00    +0.259 HD
ATOM     22  CZ  ARG A   1     -12.265  -2.258  -0.020  0.00  0.00    +0.342 C 
ATOM     23  NH2 ARG A   1     -12.497  -0.970  -0.263  0.00  0.00    -0.292 N 
ATOM     24 HH21 ARG A   1     -11.748  -0.267  -0.101  0.00  0.00    +0.255 HD
ATOM     25 HH22 ARG A   1     -13.427  -0.667  -0.615  0.00  0.00    +0.255 HD
ATOM     26  NH1 ARG A   1     -13.210  -3.156  -0.265  0.00  0.00    -0.292 N 
ATOM     27 HH11 ARG A   1     -13.021  -4.166  -0.105  0.00  0.00    +0.255 HD
ATOM     28 HH12 ARG A   1     -14.140  -2.850  -0.617  0.00  0.00    +0.255 HD
ENDBRANCH  19  20
ENDBRANCH  18  19
ENDBRANCH  17  18
ENDBRANCH   1  17
TORSDOF 10
REMARK  Name = ../refined-set-2016/3hzm/3hzm_pocket.pdb
REMARK  123 active torsions:
REMARK  status: ('A' for Active; 'I' for Inactive)
REMARK    1  A    between atoms: _1  and  _3
REMARK    2  A    between atoms: _3  and  _4
REMARK    3  A    between atoms: _3  and  _6
REMARK    4  A    between atoms: _6  and  _7
REMARK    5  A    between atoms: _10  and  _12
REMARK    6  A    between atoms: _12  and  _13
REMARK    7  A    between atoms: _12  and  _15
REMARK    8  A    between atoms: _15  and  _16
REMARK    9  A    between atoms: _21  and  _23
REMARK   10  A    between atoms: _23  and  _24
REMARK   11  A    between atoms: _23  and  _26
REMARK   12  A    between atoms: _26  and  _27
REMARK   13  A    between atoms: _27  and  _28
REMARK   14  A    between atoms: _28  and  _29
REMARK   15  A    between atoms: _38  and  _40
REMARK   16  A    between atoms: _40  and  _41
REMARK   17  A    between atoms: _40  and  _43
REMARK   18  A    between atoms: _43  and  _44
REMARK   19  A    between atoms: _47  and  _49
REMARK   20  A    between atoms: _49  and  _50
REMARK   21  A    between atoms: _49  and  _52
REMARK   22  A    between atoms: _52  and  _53
REMARK   23  A    between atoms: _58  and  _59
REMARK   24  A    between atoms: _61  and  _63
REMARK   25  A    between atoms: _63  and  _64
REMARK   26  A    between atoms: _63  and  _66
REMARK   27  A    between atoms: _66  and  _67
REMARK   28  A    between atoms: _77  and  _79
REMARK   29  A    between atoms: _79  and  _80
REMARK   30  A    between atoms: _79  and  _82
REMARK   31  A    between atoms: _82  and  _83
REMARK   32  A    between atoms: _83  and  _84
REMARK   33  A    between atoms: _84  and  _85
REMARK   34  A    between atoms: _85  and  _86
REMARK   35  A    between atoms: _90  and  _92
REMARK   36  A    between atoms: _92  and  _93
REMARK   37  A    between atoms: _92  and  _95
REMARK   38  A    between atoms: _95  and  _96
REMARK   39  A    between atoms: _96  and  _97
REMARK   40  A    between atoms: _102  and  _104
REMARK   41  A    between atoms: _104  and  _105
REMARK   42  A    between atoms: _104  and  _107
REMARK   43  A    between atoms: _107  and  _108
REMARK   44  A    between atoms: _110  and  _112
REMARK   45  A    between atoms: _112  and  _113
REMARK   46  A    between atoms: _112  and  _115
REMARK   47  A    between atoms: _115  and  _116
REMARK   48  A    between atoms: _121  and  _122
REMARK   49  A    between atoms: _124  and  _126
REMARK   50  A    between atoms: _126  and  _127
REMARK   51  A    between atoms: _126  and  _129
REMARK   52  A    between atoms: _129  and  _130
REMARK   53  A    between atoms: _135  and  _137
REMARK   54  A    between atoms: _137  and  _138
REMARK   55  A    between atoms: _137  and  _140
REMARK   56  A    between atoms: _140  and  _141
REMARK   57  A    between atoms: _144  and  _146
REMARK   58  A    between atoms: _146  and  _147
REMARK   59  A    between atoms: _146  and  _149
REMARK   60  A    between atoms: _149  and  _150
REMARK   61  A    between atoms: _150  and  _151
REMARK   62  A    between atoms: _151  and  _152
REMARK   63  A    between atoms: _161  and  _163
REMARK   64  A    between atoms: _163  and  _164
REMARK   65  A    between atoms: _163  and  _166
REMARK   66  A    between atoms: _166  and  _167
REMARK   67  A    between atoms: _172  and  _173
REMARK   68  A    between atoms: _175  and  _177
REMARK   69  A    between atoms: _177  and  _178
REMARK   70  A    between atoms: _177  and  _180
REMARK   71  A    between atoms: _180  and  _181
REMARK   72  A    between atoms: _187  and  _189
REMARK   73  A    between atoms: _189  and  _190
REMARK   74  A    between atoms: _189  and  _192
REMARK   75  A    between atoms: _192  and  _193
REMARK   76  A    between atoms: _193  and  _194
REMARK   77  A    between atoms: _194  and  _195
REMARK   78  A    between atoms: _204  and  _206
REMARK   79  A    between atoms: _206  and  _207
REMARK   80  A    between atoms: _206  and  _209
REMARK   81  A    between atoms: _209  and  _210
REMARK   82  A    between atoms: _215  and  _217
REMARK   83  A    between atoms: _217  and  _218
REMARK   84  A    between atoms: _217  and  _220
REMARK   85  A    between atoms: _220  and  _221
REMARK   86  A    between atoms: _221  and  _222
REMARK   87  A    between atoms: _222  and  _223
REMARK   88  A    between atoms: _223  and  _224
REMARK   89  A    between atoms: _228  and  _230
REMARK   90  A    between atoms: _230  and  _231
REMARK   91  A    between atoms: _230  and  _233
REMARK   92  A    between atoms: _233  and  _234
REMARK   93  A    between atoms: _237  and  _239
REMARK   94  A    between atoms: _239  and  _240
REMARK   95  A    between atoms: _239  and  _242
REMARK   96  A    between atoms: _242  and  _243
REMARK   97  A    between atoms: _243  and  _244
REMARK   98  A    between atoms: _244  and  _246
REMARK   99  A    between atoms: _247  and  _249
REMARK  100  A    between atoms: _249  and  _250
REMARK  101  A    between atoms: _249  and  _252
REMARK  102  A    between atoms: _252  and  _253
REMARK  103  A    between atoms: _256  and  _258
REMARK  104  A    between atoms: _258  and  _259
REMARK  105  A    between atoms: _258  and  _261
REMARK  106  A    between atoms: _261  and  _262
REMARK  107  A    between atoms: _266  and  _267
REMARK  108  A    between atoms: _272  and  _274
REMARK  109  A    between atoms: _274  and  _275
REMARK  110  A    between atoms: _274  and  _277
REMARK  111  A    between atoms: _277  and  _278
REMARK  112  A    between atoms: _283  and  _284
REMARK  113  A    between atoms: _286  and  _288
REMARK  114  A    between atoms: _288  and  _289
REMARK  115  A    between atoms: _288  and  _291
REMARK  116  A    between atoms: _291  and  _292
REMARK  117  A    between atoms: _297  and  _298
REMARK  118  A    between atoms: _300  and  _302
REMARK  119  A    between atoms: _302  and  _303
REMARK  120  A    between atoms: _302  and  _305
REMARK  121  A    between atoms: _305  and  _306
REMARK  122  A    between atoms: _309  and  _311
REMARK  123  A    between atoms: _311  and  _312
REMARK                            x       y       z     vdW  Elec       q    Type
REMARK                         _______ _______ _______ _____ _____    ______ ____
ROOT
ATOM      1  CG  LYS A   1      -9.008  -4.911   3.766  0.00  0.00    -0.000 C 
ENDROOT
BRANCH   1   2
ATOM      2  CB  LYS A   1      -9.261  -6.305   3.308  0.00  0.00    +0.025 C 
BRANCH   2   3
ATOM      3  CA  LYS A   1      -9.589  -7.287   4.437  0.00  0.00    +0.133 C 
BRANCH   3   4
ATOM      4  N   LYS A   1      -8.413  -8.078   4.746  0.00  0.00    -0.239 NA
ATOM      5  H   LYS A   1      -7.805  -8.401   3.967  0.00  0.00    +0.142 HD
ENDBRANCH   3   4
BRANCH   3   6
ATOM      6  C   LYS A   1     -10.778  -8.126   4.002  0.00  0.00    +0.224 C 
ATOM      7  O   LYS A   1     -11.817  -7.579   3.612  0.00  0.00    -0.287 OA
ENDBRANCH   3   6
ENDBRANCH   2   3
ENDBRANCH   1   2
BRANCH   1   8
ATOM      8  CD  LYS A   1      -7.862  -4.859   4.718  0.00  0.00    -0.024 C 
BRANCH   8   9
ATOM      9  CE  LYS A   1      -8.086  -3.728   5.682  0.00  0.00    -0.086 C 
BRANCH   9  10
ATOM     10  NZ  LYS A   1      -7.606  -2.449   5.134  0.00  0.00    +0.380 N 
ATOM     11  HZ1 LYS A   1      -7.777  -1.691   5.826  0.00  0.00    -0.089 HD
ATOM     12  HZ2 LYS A   1      -6.587  -2.518   4.938  0.00  0.00    -0.089 HD
ATOM     13  HZ3 LYS A   1      -8.116  -2.237   4.253  0.00  0.00    -0.089 HD
ENDBRANCH   9  10
ENDBRANCH   8   9
ENDBRANCH   1   8
TORSDOF 7
REMARK  Name = ../refined-set-2016/3hzm/3hzm_pocket.pdb
REMARK  123 active torsions:
REMARK  status: ('A' for Active; 'I' for Inactive)
REMARK    1  A    between atoms: _1  and  _3
REMARK    2  A    between atoms: _3  and  _4
REMARK    3  A    between atoms: _3  and  _6
REMARK    4  A    between atoms: _6  and  _7
REMARK    5  A    between atoms: _10  and  _12
REMARK    6  A    between atoms: _12  and  _13
REMARK    7  A    between atoms: _12  and  _15
REMARK    8  A    between atoms: _15  and  _16
REMARK    9  A    between atoms: _21  and  _23
REMARK   10  A    between atoms: _23  and  _24
REMARK   11  A    between atoms: _23  and  _26
REMARK   12  A    between atoms: _26  and  _27
REMARK   13  A    between atoms: _27  and  _28
REMARK   14  A    between atoms: _28  and  _29
REMARK   15  A    between atoms: _38  and  _40
REMARK   16  A    between atoms: _40  and  _41
REMARK   17  A    between atoms: _40  and  _43
REMARK   18  A    between atoms: _43  and  _44
REMARK   19  A    between atoms: _47  and  _49
REMARK   20  A    between atoms: _49  and  _50
REMARK   21  A    between atoms: _49  and  _52
REMARK   22  A    between atoms: _52  and  _53
REMARK   23  A    between atoms: _58  and  _59
REMARK   24  A    between atoms: _61  and  _63
REMARK   25  A    between atoms: _63  and  _64
REMARK   26  A    between atoms: _63  and  _66
REMARK   27  A    between atoms: _66  and  _67
REMARK   28  A    between atoms: _77  and  _79
REMARK   29  A    between atoms: _79  and  _80
REMARK   30  A    between atoms: _79  and  _82
REMARK   31  A    between atoms: _82  and  _83
REMARK   32  A    between atoms: _83  and  _84
REMARK   33  A    between atoms: _84  and  _85
REMARK   34  A    between atoms: _85  and  _86
REMARK   35  A    between atoms: _90  and  _92
REMARK   36  A    between atoms: _92  and  _93
REMARK   37  A    between atoms: _92  and  _95
REMARK   38  A    between atoms: _95  and  _96
REMARK   39  A    between atoms: _96  and  _97
REMARK   40  A    between atoms: _102  and  _104
REMARK   41  A    between atoms: _104  and  _105
REMARK   42  A    between atoms: _104  and  _107
REMARK   43  A    between atoms: _107  and  _108
REMARK   44  A    between atoms: _110  and  _112
REMARK   45  A    between atoms: _112  and  _113
REMARK   46  A    between atoms: _112  and  _115
REMARK   47  A    between atoms: _115  and  _116
REMARK   48  A    between atoms: _121  and  _122
REMARK   49  A    between atoms: _124  and  _126
REMARK   50  A    between atoms: _126  and  _127
REMARK   51  A    between atoms: _126  and  _129
REMARK   52  A    between atoms: _129  and  _130
REMARK   53  A    between atoms: _135  and  _137
REMARK   54  A    between atoms: _137  and  _138
REMARK   55  A    between atoms: _137  and  _140
REMARK   56  A    between atoms: _140  and  _141
REMARK   57  A    between atoms: _144  and  _146
REMARK   58  A    between atoms: _146  and  _147
REMARK   59  A    between atoms: _146  and  _149
REMARK   60  A    between atoms: _149  and  _150
REMARK   61  A    between atoms: _150  and  _151
REMARK   62  A    between atoms: _151  and  _152
REMARK   63  A    between atoms: _161  and  _163
REMARK   64  A    between atoms: _163  and  _164
REMARK   65  A    between atoms: _163  and  _166
REMARK   66  A    between atoms: _166  and  _167
REMARK   67  A    between atoms: _172  and  _173
REMARK   68  A    between atoms: _175  and  _177
REMARK   69  A    between atoms: _177  and  _178
REMARK   70  A    between atoms: _177  and  _180
REMARK   71  A    between atoms: _180  and  _181
REMARK   72  A    between atoms: _187  and  _189
REMARK   73  A    between atoms: _189  and  _190
REMARK   74  A    between atoms: _189  and  _192
REMARK   75  A    between atoms: _192  and  _193
REMARK   76  A    between atoms: _193  and  _194
REMARK   77  A    between atoms: _194  and  _195
REMARK   78  A    between atoms: _204  and  _206
REMARK   79  A    between atoms: _206  and  _207
REMARK   80  A    between atoms: _206  and  _209
REMARK   81  A    between atoms: _209  and  _210
REMARK   82  A    between atoms: _215  and  _217
REMARK   83  A    between atoms: _217  and  _218
REMARK   84  A    between atoms: _217  and  _220
REMARK   85  A    between atoms: _220  and  _221
REMARK   86  A    between atoms: _221  and  _222
REMARK   87  A    between atoms: _222  and  _223
REMARK   88  A    between atoms: _223  and  _224
REMARK   89  A    between atoms: _228  and  _230
REMARK   90  A    between atoms: _230  and  _231
REMARK   91  A    between atoms: _230  and  _233
REMARK   92  A    between atoms: _233  and  _234
REMARK   93  A    between atoms: _237  and  _239
REMARK   94  A    between atoms: _239  and  _240
REMARK   95  A    between atoms: _239  and  _242
REMARK   96  A    between atoms: _242  and  _243
REMARK   97  A    between atoms: _243  and  _244
REMARK   98  A    between atoms: _244  and  _246
REMARK   99  A    between atoms: _247  and  _249
REMARK  100  A    between atoms: _249  and  _250
REMARK  101  A    between atoms: _249  and  _252
REMARK  102  A    between atoms: _252  and  _253
REMARK  103  A    between atoms: _256  and  _258
REMARK  104  A    between atoms: _258  and  _259
REMARK  105  A    between atoms: _258  and  _261
REMARK  106  A    between atoms: _261  and  _262
REMARK  107  A    between atoms: _266  and  _267
REMARK  108  A    between atoms: _272  and  _274
REMARK  109  A    between atoms: _274  and  _275
REMARK  110  A    between atoms: _274  and  _277
REMARK  111  A    between atoms: _277  and  _278
REMARK  112  A    between atoms: _283  and  _284
REMARK  113  A    between atoms: _286  and  _288
REMARK  114  A    between atoms: _288  and  _289
REMARK  115  A    between atoms: _288  and  _291
REMARK  116  A    between atoms: _291  and  _292
REMARK  117  A    between atoms: _297  and  _298
REMARK  118  A    between atoms: _300  and  _302
REMARK  119  A    between atoms: _302  and  _303
REMARK  120  A    between atoms: _302  and  _305
REMARK  121  A    between atoms: _305  and  _306
REMARK  122  A    between atoms: _309  and  _311
REMARK  123  A    between atoms: _311  and  _312
REMARK                            x       y       z     vdW  Elec       q    Type
REMARK                         _______ _______ _______ _____ _____    ______ ____
ROOT
ATOM      1  CA  THR A   1     -14.008  -7.622  -0.562  0.00  0.00    +0.160 C 
ENDROOT
BRANCH   1   2
ATOM      2  N   THR A   1     -12.871  -8.397  -0.051  0.00  0.00    -0.237 NA
ATOM      3  H   THR A   1     -12.325  -8.040   0.759  0.00  0.00    +0.142 HD
ENDBRANCH   1   2
BRANCH   1   4
ATOM      4  CB  THR A   1     -14.515  -6.599   0.476  0.00  0.00    +0.134 C 
ATOM      5  CG2 THR A   1     -15.156  -7.342   1.671  0.00  0.00    +0.034 C 
BRANCH   4   6
ATOM      6  OG1 THR A   1     -13.414  -5.806   0.950  0.00  0.00    -0.383 OA
ATOM      7  HG1 THR A   1     -13.743  -5.151   1.616  0.00  0.00    +0.210 HD
ENDBRANCH   4   6
ENDBRANCH   1   4
BRANCH   1   8
ATOM      8  C   THR A   1     -13.681  -6.900  -1.878  0.00  0.00    +0.227 C 
ATOM      9  O   THR A   1     -12.525  -6.682  -2.211  0.00  0.00    -0.287 OA
ENDBRANCH   1   8
TORSDOF 4
REMARK  Name = ../refined-set-2016/3hzm/3hzm_pocket.pdb
REMARK  123 active torsions:
REMARK  status: ('A' for Active; 'I' for Inactive)
REMARK    1  A    between atoms: _1  and  _3
REMARK    2  A    between atoms: _3  and  _4
REMARK    3  A    between atoms: _3  and  _6
REMARK    4  A    between atoms: _6  and  _7
REMARK    5  A    between atoms: _10  and  _12
REMARK    6  A    between atoms: _12  and  _13
REMARK    7  A    between atoms: _12  and  _15
REMARK    8  A    between atoms: _15  and  _16
REMARK    9  A    between atoms: _21  and  _23
REMARK   10  A    between atoms: _23  and  _24
REMARK   11  A    between atoms: _23  and  _26
REMARK   12  A    between atoms: _26  and  _27
REMARK   13  A    between atoms: _27  and  _28
REMARK   14  A    between atoms: _28  and  _29
REMARK   15  A    between atoms: _38  and  _40
REMARK   16  A    between atoms: _40  and  _41
REMARK   17  A    between atoms: _40  and  _43
REMARK   18  A    between atoms: _43  and  _44
REMARK   19  A    between atoms: _47  and  _49
REMARK   20  A    between atoms: _49  and  _50
REMARK   21  A    between atoms: _49  and  _52
REMARK   22  A    between atoms: _52  and  _53
REMARK   23  A    between atoms: _58  and  _59
REMARK   24  A    between atoms: _61  and  _63
REMARK   25  A    between atoms: _63  and  _64
REMARK   26  A    between atoms: _63  and  _66
REMARK   27  A    between atoms: _66  and  _67
REMARK   28  A    between atoms: _77  and  _79
REMARK   29  A    between atoms: _79  and  _80
REMARK   30  A    between atoms: _79  and  _82
REMARK   31  A    between atoms: _82  and  _83
REMARK   32  A    between atoms: _83  and  _84
REMARK   33  A    between atoms: _84  and  _85
REMARK   34  A    between atoms: _85  and  _86
REMARK   35  A    between atoms: _90  and  _92
REMARK   36  A    between atoms: _92  and  _93
REMARK   37  A    between atoms: _92  and  _95
REMARK   38  A    between atoms: _95  and  _96
REMARK   39  A    between atoms: _96  and  _97
REMARK   40  A    between atoms: _102  and  _104
REMARK   41  A    between atoms: _104  and  _105
REMARK   42  A    between atoms: _104  and  _107
REMARK   43  A    between atoms: _107  and  _108
REMARK   44  A    between atoms: _110  and  _112
REMARK   45  A    between atoms: _112  and  _113
REMARK   46  A    between atoms: _112  and  _115
REMARK   47  A    between atoms: _115  and  _116
REMARK   48  A    between atoms: _121  and  _122
REMARK   49  A    between atoms: _124  and  _126
REMARK   50  A    between atoms: _126  and  _127
REMARK   51  A    between atoms: _126  and  _129
REMARK   52  A    between atoms: _129  and  _130
REMARK   53  A    between atoms: _135  and  _137
REMARK   54  A    between atoms: _137  and  _138
REMARK   55  A    between atoms: _137  and  _140
REMARK   56  A    between atoms: _140  and  _141
REMARK   57  A    between atoms: _144  and  _146
REMARK   58  A    between atoms: _146  and  _147
REMARK   59  A    between atoms: _146  and  _149
REMARK   60  A    between atoms: _149  and  _150
REMARK   61  A    between atoms: _150  and  _151
REMARK   62  A    between atoms: _151  and  _152
REMARK   63  A    between atoms: _161  and  _163
REMARK   64  A    between atoms: _163  and  _164
REMARK   65  A    between atoms: _163  and  _166
REMARK   66  A    between atoms: _166  and  _167
REMARK   67  A    between atoms: _172  and  _173
REMARK   68  A    between atoms: _175  and  _177
REMARK   69  A    between atoms: _177  and  _178
REMARK   70  A    between atoms: _177  and  _180
REMARK   71  A    between atoms: _180  and  _181
REMARK   72  A    between atoms: _187  and  _189
REMARK   73  A    between atoms: _189  and  _190
REMARK   74  A    between atoms: _189  and  _192
REMARK   75  A    between atoms: _192  and  _193
REMARK   76  A    between atoms: _193  and  _194
REMARK   77  A    between atoms: _194  and  _195
REMARK   78  A    between atoms: _204  and  _206
REMARK   79  A    between atoms: _206  and  _207
REMARK   80  A    between atoms: _206  and  _209
REMARK   81  A    between atoms: _209  and  _210
REMARK   82  A    between atoms: _215  and  _217
REMARK   83  A    between atoms: _217  and  _218
REMARK   84  A    between atoms: _217  and  _220
REMARK   85  A    between atoms: _220  and  _221
REMARK   86  A    between atoms: _221  and  _222
REMARK   87  A    between atoms: _222  and  _223
REMARK   88  A    between atoms: _223  and  _224
REMARK   89  A    between atoms: _228  and  _230
REMARK   90  A    between atoms: _230  and  _231
REMARK   91  A    between atoms: _230  and  _233
REMARK   92  A    between atoms: _233  and  _234
REMARK   93  A    between atoms: _237  and  _239
REMARK   94  A    between atoms: _239  and  _240
REMARK   95  A    between atoms: _239  and  _242
REMARK   96  A    between atoms: _242  and  _243
REMARK   97  A    between atoms: _243  and  _244
REMARK   98  A    between atoms: _244  and  _246
REMARK   99  A    between atoms: _247  and  _249
REMARK  100  A    between atoms: _249  and  _250
REMARK  101  A    between atoms: _249  and  _252
REMARK  102  A    between atoms: _252  and  _253
REMARK  103  A    between atoms: _256  and  _258
REMARK  104  A    between atoms: _258  and  _259
REMARK  105  A    between atoms: _258  and  _261
REMARK  106  A    between atoms: _261  and  _262
REMARK  107  A    between atoms: _266  and  _267
REMARK  108  A    between atoms: _272  and  _274
REMARK  109  A    between atoms: _274  and  _275
REMARK  110  A    between atoms: _274  and  _277
REMARK  111  A    between atoms: _277  and  _278
REMARK  112  A    between atoms: _283  and  _284
REMARK  113  A    between atoms: _286  and  _288
REMARK  114  A    between atoms: _288  and  _289
REMARK  115  A    between atoms: _288  and  _291
REMARK  116  A    between atoms: _291  and  _292
REMARK  117  A    between atoms: _297  and  _298
REMARK  118  A    between atoms: _300  and  _302
REMARK  119  A    between atoms: _302  and  _303
REMARK  120  A    between atoms: _302  and  _305
REMARK  121  A    between atoms: _305  and  _306
REMARK  122  A    between atoms: _309  and  _311
REMARK  123  A    between atoms: _311  and  _312
REMARK                            x       y       z     vdW  Elec       q    Type
REMARK                         _______ _______ _______ _____ _____    ______ ____
ROOT
ATOM      1  C   UNL     1     -14.108  -1.391  -4.838  0.00  0.00    +0.000 C 
ENDROOT
BRANCH   1   2
ATOM      2  CA  UNL     1     -14.924  -2.521  -5.495  0.00  0.00    +0.000 C 
BRANCH   2   3
ATOM      3  N   UNL     1     -14.431  -3.838  -5.113  0.00  0.00    +0.000 NA
ATOM      4  H   UNL     1     -13.609  -4.236  -5.610  0.00  0.00    +0.000 HD
ENDBRANCH   2   3
BRANCH   2   5
ATOM      5  C   UNL     1     -14.808  -2.372  -7.007  0.00  0.00    +0.000 C 
ATOM      6  O   UNL     1     -13.948  -3.005  -7.629  0.00  0.00    +0.000 OA
ENDBRANCH   2   5
ENDBRANCH   1   2
BRANCH   1   7
ATOM      7  C   UNL     1     -13.943  -1.518  -3.313  0.00  0.00    +0.000 C 
BRANCH   7   8
ATOM      8  C   UNL     1     -15.184  -1.081  -2.536  0.00  0.00    +0.000 C 
ATOM      9  O   UNL     1     -16.172  -0.626  -3.160  0.00  0.00    +0.000 OA
BRANCH   8  10
ATOM     10  O   UNL     1     -15.132  -1.175  -1.288  0.00  0.00    +0.000 OA
ATOM     11 ZN   UNL     1     -16.856  -1.253  -0.306  0.00  0.00    +0.000 Zn
ENDBRANCH   8  10
ENDBRANCH   7   8
ENDBRANCH   1   7
TORSDOF 6
REMARK  Name = ../refined-set-2016/3hzm/3hzm_pocket.pdb
REMARK  123 active torsions:
REMARK  status: ('A' for Active; 'I' for Inactive)
REMARK    1  A    between atoms: _1  and  _3
REMARK    2  A    between atoms: _3  and  _4
REMARK    3  A    between atoms: _3  and  _6
REMARK    4  A    between atoms: _6  and  _7
REMARK    5  A    between atoms: _10  and  _12
REMARK    6  A    between atoms: _12  and  _13
REMARK    7  A    between atoms: _12  and  _15
REMARK    8  A    between atoms: _15  and  _16
REMARK    9  A    between atoms: _21  and  _23
REMARK   10  A    between atoms: _23  and  _24
REMARK   11  A    between atoms: _23  and  _26
REMARK   12  A    between atoms: _26  and  _27
REMARK   13  A    between atoms: _27  and  _28
REMARK   14  A    between atoms: _28  and  _29
REMARK   15  A    between atoms: _38  and  _40
REMARK   16  A    between atoms: _40  and  _41
REMARK   17  A    between atoms: _40  and  _43
REMARK   18  A    between atoms: _43  and  _44
REMARK   19  A    between atoms: _47  and  _49
REMARK   20  A    between atoms: _49  and  _50
REMARK   21  A    between atoms: _49  and  _52
REMARK   22  A    between atoms: _52  and  _53
REMARK   23  A    between atoms: _58  and  _59
REMARK   24  A    between atoms: _61  and  _63
REMARK   25  A    between atoms: _63  and  _64
REMARK   26  A    between atoms: _63  and  _66
REMARK   27  A    between atoms: _66  and  _67
REMARK   28  A    between atoms: _77  and  _79
REMARK   29  A    between atoms: _79  and  _80
REMARK   30  A    between atoms: _79  and  _82
REMARK   31  A    between atoms: _82  and  _83
REMARK   32  A    between atoms: _83  and  _84
REMARK   33  A    between atoms: _84  and  _85
REMARK   34  A    between atoms: _85  and  _86
REMARK   35  A    between atoms: _90  and  _92
REMARK   36  A    between atoms: _92  and  _93
REMARK   37  A    between atoms: _92  and  _95
REMARK   38  A    between atoms: _95  and  _96
REMARK   39  A    between atoms: _96  and  _97
REMARK   40  A    between atoms: _102  and  _104
REMARK   41  A    between atoms: _104  and  _105
REMARK   42  A    between atoms: _104  and  _107
REMARK   43  A    between atoms: _107  and  _108
REMARK   44  A    between atoms: _110  and  _112
REMARK   45  A    between atoms: _112  and  _113
REMARK   46  A    between atoms: _112  and  _115
REMARK   47  A    between atoms: _115  and  _116
REMARK   48  A    between atoms: _121  and  _122
REMARK   49  A    between atoms: _124  and  _126
REMARK   50  A    between atoms: _126  and  _127
REMARK   51  A    between atoms: _126  and  _129
REMARK   52  A    between atoms: _129  and  _130
REMARK   53  A    between atoms: _135  and  _137
REMARK   54  A    between atoms: _137  and  _138
REMARK   55  A    between atoms: _137  and  _140
REMARK   56  A    between atoms: _140  and  _141
REMARK   57  A    between atoms: _144  and  _146
REMARK   58  A    between atoms: _146  and  _147
REMARK   59  A    between atoms: _146  and  _149
REMARK   60  A    between atoms: _149  and  _150
REMARK   61  A    between atoms: _150  and  _151
REMARK   62  A    between atoms: _151  and  _152
REMARK   63  A    between atoms: _161  and  _163
REMARK   64  A    between atoms: _163  and  _164
REMARK   65  A    between atoms: _163  and  _166
REMARK   66  A    between atoms: _166  and  _167
REMARK   67  A    between atoms: _172  and  _173
REMARK   68  A    between atoms: _175  and  _177
REMARK   69  A    between atoms: _177  and  _178
REMARK   70  A    between atoms: _177  and  _180
REMARK   71  A    between atoms: _180  and  _181
REMARK   72  A    between atoms: _187  and  _189
REMARK   73  A    between atoms: _189  and  _190
REMARK   74  A    between atoms: _189  and  _192
REMARK   75  A    between atoms: _192  and  _193
REMARK   76  A    between atoms: _193  and  _194
REMARK   77  A    between atoms: _194  and  _195
REMARK   78  A    between atoms: _204  and  _206
REMARK   79  A    between atoms: _206  and  _207
REMARK   80  A    between atoms: _206  and  _209
REMARK   81  A    between atoms: _209  and  _210
REMARK   82  A    between atoms: _215  and  _217
REMARK   83  A    between atoms: _217  and  _218
REMARK   84  A    between atoms: _217  and  _220
REMARK   85  A    between atoms: _220  and  _221
REMARK   86  A    between atoms: _221  and  _222
REMARK   87  A    between atoms: _222  and  _223
REMARK   88  A    between atoms: _223  and  _224
REMARK   89  A    between atoms: _228  and  _230
REMARK   90  A    between atoms: _230  and  _231
REMARK   91  A    between atoms: _230  and  _233
REMARK   92  A    between atoms: _233  and  _234
REMARK   93  A    between atoms: _237  and  _239
REMARK   94  A    between atoms: _239  and  _240
REMARK   95  A    between atoms: _239  and  _242
REMARK   96  A    between atoms: _242  and  _243
REMARK   97  A    between atoms: _243  and  _244
REMARK   98  A    between atoms: _244  and  _246
REMARK   99  A    between atoms: _247  and  _249
REMARK  100  A    between atoms: _249  and  _250
REMARK  101  A    between atoms: _249  and  _252
REMARK  102  A    between atoms: _252  and  _253
REMARK  103  A    between atoms: _256  and  _258
REMARK  104  A    between atoms: _258  and  _259
REMARK  105  A    between atoms: _258  and  _261
REMARK  106  A    between atoms: _261  and  _262
REMARK  107  A    between atoms: _266  and  _267
REMARK  108  A    between atoms: _272  and  _274
REMARK  109  A    between atoms: _274  and  _275
REMARK  110  A    between atoms: _274  and  _277
REMARK  111  A    between atoms: _277  and  _278
REMARK  112  A    between atoms: _283  and  _284
REMARK  113  A    between atoms: _286  and  _288
REMARK  114  A    between atoms: _288  and  _289
REMARK  115  A    between atoms: _288  and  _291
REMARK  116  A    between atoms: _291  and  _292
REMARK  117  A    between atoms: _297  and  _298
REMARK  118  A    between atoms: _300  and  _302
REMARK  119  A    between atoms: _302  and  _303
REMARK  120  A    between atoms: _302  and  _305
REMARK  121  A    between atoms: _305  and  _306
REMARK  122  A    between atoms: _309  and  _311
REMARK  123  A    between atoms: _311  and  _312
REMARK                            x       y       z     vdW  Elec       q    Type
REMARK                         _______ _______ _______ _____ _____    ______ ____
ROOT
ATOM      1  C   ASP A   1      -1.697  -3.545  -4.398  0.00  0.00    +0.239 C 
ATOM      2  N   ILE A   2      -2.289  -2.852  -3.427  0.00  0.00    -0.298 N 
ATOM      3  H   ILE A   2      -3.250  -2.481  -3.573  0.00  0.00    +0.150 HD
ATOM      4  O   ASP A   1      -0.696  -4.252  -4.197  0.00  0.00    -0.274 OA
ENDROOT
BRANCH   1   5
ATOM      5  CA  ASP A   1      -2.301  -3.474  -5.802  0.00  0.00    +0.156 C 
BRANCH   5   6
ATOM      6  N   ASP A   1      -1.861  -4.687  -6.479  0.00  0.00    -0.238 NA
ATOM      7  H   ASP A   1      -2.297  -5.597  -6.228  0.00  0.00    +0.142 HD
ENDBRANCH   5   6
BRANCH   5   8
ATOM      8  CB  ASP A   1      -3.847  -3.374  -5.846  0.00  0.00    +0.140 C 
BRANCH   8   9
ATOM      9  CG  ASP A   1      -4.379  -1.924  -5.704  0.00  0.00    +0.367 C 
ATOM     10  OD2 ASP A   1      -3.843  -1.150  -4.891  0.00  0.00    -0.246 OA
ATOM     11  OD1 ASP A   1      -5.370  -1.580  -6.399  0.00  0.00    -0.246 OA
ENDBRANCH   8   9
ENDBRANCH   5   8
ENDBRANCH   1   5
BRANCH   2  12
ATOM     12  CA  ILE A   2      -1.599  -2.604  -2.148  0.00  0.00    +0.137 C 
BRANCH  12  13
ATOM     13  C   ILE A   2      -1.602  -3.787  -1.158  0.00  0.00    +0.227 C 
ATOM     14  O   ILE A   2      -2.454  -4.691  -1.250  0.00  0.00    -0.286 OA
ENDBRANCH  12  13
BRANCH  12  15
ATOM     15  CB  ILE A   2      -2.174  -1.336  -1.432  0.00  0.00    +0.026 C 
ATOM     16  CG2 ILE A   2      -1.974  -0.068  -2.312  0.00  0.00    +0.002 C 
BRANCH  15  17
ATOM     17  CG1 ILE A   2      -3.648  -1.549  -1.039  0.00  0.00    +0.002 C 
ATOM     18  CD1 ILE A   2      -4.250  -0.387  -0.178  0.00  0.00    +0.000 C 
ENDBRANCH  15  17
ENDBRANCH  12  15
ENDBRANCH   2  12
TORSDOF 8
REMARK  Name = ../refined-set-2016/3hzm/3hzm_pocket.pdb
REMARK  123 active torsions:
REMARK  status: ('A' for Active; 'I' for Inactive)
REMARK    1  A    between atoms: _1  and  _3
REMARK    2  A    between atoms: _3  and  _4
REMARK    3  A    between atoms: _3  and  _6
REMARK    4  A    between atoms: _6  and  _7
REMARK    5  A    between atoms: _10  and  _12
REMARK    6  A    between atoms: _12  and  _13
REMARK    7  A    between atoms: _12  and  _15
REMARK    8  A    between atoms: _15  and  _16
REMARK    9  A    between atoms: _21  and  _23
REMARK   10  A    between atoms: _23  and  _24
REMARK   11  A    between atoms: _23  and  _26
REMARK   12  A    between atoms: _26  and  _27
REMARK   13  A    between atoms: _27  and  _28
REMARK   14  A    between atoms: _28  and  _29
REMARK   15  A    between atoms: _38  and  _40
REMARK   16  A    between atoms: _40  and  _41
REMARK   17  A    between atoms: _40  and  _43
REMARK   18  A    between atoms: _43  and  _44
REMARK   19  A    between atoms: _47  and  _49
REMARK   20  A    between atoms: _49  and  _50
REMARK   21  A    between atoms: _49  and  _52
REMARK   22  A    between atoms: _52  and  _53
REMARK   23  A    between atoms: _58  and  _59
REMARK   24  A    between atoms: _61  and  _63
REMARK   25  A    between atoms: _63  and  _64
REMARK   26  A    between atoms: _63  and  _66
REMARK   27  A    between atoms: _66  and  _67
REMARK   28  A    between atoms: _77  and  _79
REMARK   29  A    between atoms: _79  and  _80
REMARK   30  A    between atoms: _79  and  _82
REMARK   31  A    between atoms: _82  and  _83
REMARK   32  A    between atoms: _83  and  _84
REMARK   33  A    between atoms: _84  and  _85
REMARK   34  A    between atoms: _85  and  _86
REMARK   35  A    between atoms: _90  and  _92
REMARK   36  A    between atoms: _92  and  _93
REMARK   37  A    between atoms: _92  and  _95
REMARK   38  A    between atoms: _95  and  _96
REMARK   39  A    between atoms: _96  and  _97
REMARK   40  A    between atoms: _102  and  _104
REMARK   41  A    between atoms: _104  and  _105
REMARK   42  A    between atoms: _104  and  _107
REMARK   43  A    between atoms: _107  and  _108
REMARK   44  A    between atoms: _110  and  _112
REMARK   45  A    between atoms: _112  and  _113
REMARK   46  A    between atoms: _112  and  _115
REMARK   47  A    between atoms: _115  and  _116
REMARK   48  A    between atoms: _121  and  _122
REMARK   49  A    between atoms: _124  and  _126
REMARK   50  A    between atoms: _126  and  _127
REMARK   51  A    between atoms: _126  and  _129
REMARK   52  A    between atoms: _129  and  _130
REMARK   53  A    between atoms: _135  and  _137
REMARK   54  A    between atoms: _137  and  _138
REMARK   55  A    between atoms: _137  and  _140
REMARK   56  A    between atoms: _140  and  _141
REMARK   57  A    between atoms: _144  and  _146
REMARK   58  A    between atoms: _146  and  _147
REMARK   59  A    between atoms: _146  and  _149
REMARK   60  A    between atoms: _149  and  _150
REMARK   61  A    between atoms: _150  and  _151
REMARK   62  A    between atoms: _151  and  _152
REMARK   63  A    between atoms: _161  and  _163
REMARK   64  A    between atoms: _163  and  _164
REMARK   65  A    between atoms: _163  and  _166
REMARK   66  A    between atoms: _166  and  _167
REMARK   67  A    between atoms: _172  and  _173
REMARK   68  A    between atoms: _175  and  _177
REMARK   69  A    between atoms: _177  and  _178
REMARK   70  A    between atoms: _177  and  _180
REMARK   71  A    between atoms: _180  and  _181
REMARK   72  A    between atoms: _187  and  _189
REMARK   73  A    between atoms: _189  and  _190
REMARK   74  A    between atoms: _189  and  _192
REMARK   75  A    between atoms: _192  and  _193
REMARK   76  A    between atoms: _193  and  _194
REMARK   77  A    between atoms: _194  and  _195
REMARK   78  A    between atoms: _204  and  _206
REMARK   79  A    between atoms: _206  and  _207
REMARK   80  A    between atoms: _206  and  _209
REMARK   81  A    between atoms: _209  and  _210
REMARK   82  A    between atoms: _215  and  _217
REMARK   83  A    between atoms: _217  and  _218
REMARK   84  A    between atoms: _217  and  _220
REMARK   85  A    between atoms: _220  and  _221
REMARK   86  A    between atoms: _221  and  _222
REMARK   87  A    between atoms: _222  and  _223
REMARK   88  A    between atoms: _223  and  _224
REMARK   89  A    between atoms: _228  and  _230
REMARK   90  A    between atoms: _230  and  _231
REMARK   91  A    between atoms: _230  and  _233
REMARK   92  A    between atoms: _233  and  _234
REMARK   93  A    between atoms: _237  and  _239
REMARK   94  A    between atoms: _239  and  _240
REMARK   95  A    between atoms: _239  and  _242
REMARK   96  A    between atoms: _242  and  _243
REMARK   97  A    between atoms: _243  and  _244
REMARK   98  A    between atoms: _244  and  _246
REMARK   99  A    between atoms: _247  and  _249
REMARK  100  A    between atoms: _249  and  _250
REMARK  101  A    between atoms: _249  and  _252
REMARK  102  A    between atoms: _252  and  _253
REMARK  103  A    between atoms: _256  and  _258
REMARK  104  A    between atoms: _258  and  _259
REMARK  105  A    between atoms: _258  and  _261
REMARK  106  A    between atoms: _261  and  _262
REMARK  107  A    between atoms: _266  and  _267
REMARK  108  A    between atoms: _272  and  _274
REMARK  109  A    between atoms: _274  and  _275
REMARK  110  A    between atoms: _274  and  _277
REMARK  111  A    between atoms: _277  and  _278
REMARK  112  A    between atoms: _283  and  _284
REMARK  113  A    between atoms: _286  and  _288
REMARK  114  A    between atoms: _288  and  _289
REMARK  115  A    between atoms: _288  and  _291
REMARK  116  A    between atoms: _291  and  _292
REMARK  117  A    between atoms: _297  and  _298
REMARK  118  A    between atoms: _300  and  _302
REMARK  119  A    between atoms: _302  and  _303
REMARK  120  A    between atoms: _302  and  _305
REMARK  121  A    between atoms: _305  and  _306
REMARK  122  A    between atoms: _309  and  _311
REMARK  123  A    between atoms: _311  and  _312
REMARK                            x       y       z     vdW  Elec       q    Type
REMARK                         _______ _______ _______ _____ _____    ______ ____
ROOT
ATOM      1  N   PRO A   1      -1.807  -3.105   2.653  0.00  0.00    -0.212 NA
ATOM      2  CA  PRO A   1      -1.839  -2.041   3.670  0.00  0.00    +0.137 C 
ATOM      3  CB  PRO A   1      -3.333  -1.725   3.836  0.00  0.00    +0.027 C 
ATOM      4  CG  PRO A   1      -4.062  -2.582   2.862  0.00  0.00    +0.021 C 
ATOM      5  CD  PRO A   1      -3.148  -3.624   2.332  0.00  0.00    +0.089 C 
ENDROOT
BRANCH   2   6
ATOM      6  C   PRO A   1      -1.306  -2.511   5.017  0.00  0.00    +0.224 C 
ATOM      7  O   PRO A   1      -0.976  -1.676   5.871  0.00  0.00    -0.287 OA
ENDBRANCH   2   6
TORSDOF 1
REMARK  Name = ../refined-set-2016/3hzm/3hzm_pocket.pdb
REMARK  123 active torsions:
REMARK  status: ('A' for Active; 'I' for Inactive)
REMARK    1  A    between atoms: _1  and  _3
REMARK    2  A    between atoms: _3  and  _4
REMARK    3  A    between atoms: _3  and  _6
REMARK    4  A    between atoms: _6  and  _7
REMARK    5  A    between atoms: _10  and  _12
REMARK    6  A    between atoms: _12  and  _13
REMARK    7  A    between atoms: _12  and  _15
REMARK    8  A    between atoms: _15  and  _16
REMARK    9  A    between atoms: _21  and  _23
REMARK   10  A    between atoms: _23  and  _24
REMARK   11  A    between atoms: _23  and  _26
REMARK   12  A    between atoms: _26  and  _27
REMARK   13  A    between atoms: _27  and  _28
REMARK   14  A    between atoms: _28  and  _29
REMARK   15  A    between atoms: _38  and  _40
REMARK   16  A    between atoms: _40  and  _41
REMARK   17  A    between atoms: _40  and  _43
REMARK   18  A    between atoms: _43  and  _44
REMARK   19  A    between atoms: _47  and  _49
REMARK   20  A    between atoms: _49  and  _50
REMARK   21  A    between atoms: _49  and  _52
REMARK   22  A    between atoms: _52  and  _53
REMARK   23  A    between atoms: _58  and  _59
REMARK   24  A    between atoms: _61  and  _63
REMARK   25  A    between atoms: _63  and  _64
REMARK   26  A    between atoms: _63  and  _66
REMARK   27  A    between atoms: _66  and  _67
REMARK   28  A    between atoms: _77  and  _79
REMARK   29  A    between atoms: _79  and  _80
REMARK   30  A    between atoms: _79  and  _82
REMARK   31  A    between atoms: _82  and  _83
REMARK   32  A    between atoms: _83  and  _84
REMARK   33  A    between atoms: _84  and  _85
REMARK   34  A    between atoms: _85  and  _86
REMARK   35  A    between atoms: _90  and  _92
REMARK   36  A    between atoms: _92  and  _93
REMARK   37  A    between atoms: _92  and  _95
REMARK   38  A    between atoms: _95  and  _96
REMARK   39  A    between atoms: _96  and  _97
REMARK   40  A    between atoms: _102  and  _104
REMARK   41  A    between atoms: _104  and  _105
REMARK   42  A    between atoms: _104  and  _107
REMARK   43  A    between atoms: _107  and  _108
REMARK   44  A    between atoms: _110  and  _112
REMARK   45  A    between atoms: _112  and  _113
REMARK   46  A    between atoms: _112  and  _115
REMARK   47  A    between atoms: _115  and  _116
REMARK   48  A    between atoms: _121  and  _122
REMARK   49  A    between atoms: _124  and  _126
REMARK   50  A    between atoms: _126  and  _127
REMARK   51  A    between atoms: _126  and  _129
REMARK   52  A    between atoms: _129  and  _130
REMARK   53  A    between atoms: _135  and  _137
REMARK   54  A    between atoms: _137  and  _138
REMARK   55  A    between atoms: _137  and  _140
REMARK   56  A    between atoms: _140  and  _141
REMARK   57  A    between atoms: _144  and  _146
REMARK   58  A    between atoms: _146  and  _147
REMARK   59  A    between atoms: _146  and  _149
REMARK   60  A    between atoms: _149  and  _150
REMARK   61  A    between atoms: _150  and  _151
REMARK   62  A    between atoms: _151  and  _152
REMARK   63  A    between atoms: _161  and  _163
REMARK   64  A    between atoms: _163  and  _164
REMARK   65  A    between atoms: _163  and  _166
REMARK   66  A    between atoms: _166  and  _167
REMARK   67  A    between atoms: _172  and  _173
REMARK   68  A    between atoms: _175  and  _177
REMARK   69  A    between atoms: _177  and  _178
REMARK   70  A    between atoms: _177  and  _180
REMARK   71  A    between atoms: _180  and  _181
REMARK   72  A    between atoms: _187  and  _189
REMARK   73  A    between atoms: _189  and  _190
REMARK   74  A    between atoms: _189  and  _192
REMARK   75  A    between atoms: _192  and  _193
REMARK   76  A    between atoms: _193  and  _194
REMARK   77  A    between atoms: _194  and  _195
REMARK   78  A    between atoms: _204  and  _206
REMARK   79  A    between atoms: _206  and  _207
REMARK   80  A    between atoms: _206  and  _209
REMARK   81  A    between atoms: _209  and  _210
REMARK   82  A    between atoms: _215  and  _217
REMARK   83  A    between atoms: _217  and  _218
REMARK   84  A    between atoms: _217  and  _220
REMARK   85  A    between atoms: _220  and  _221
REMARK   86  A    between atoms: _221  and  _222
REMARK   87  A    between atoms: _222  and  _223
REMARK   88  A    between atoms: _223  and  _224
REMARK   89  A    between atoms: _228  and  _230
REMARK   90  A    between atoms: _230  and  _231
REMARK   91  A    between atoms: _230  and  _233
REMARK   92  A    between atoms: _233  and  _234
REMARK   93  A    between atoms: _237  and  _239
REMARK   94  A    between atoms: _239  and  _240
REMARK   95  A    between atoms: _239  and  _242
REMARK   96  A    between atoms: _242  and  _243
REMARK   97  A    between atoms: _243  and  _244
REMARK   98  A    between atoms: _244  and  _246
REMARK   99  A    between atoms: _247  and  _249
REMARK  100  A    between atoms: _249  and  _250
REMARK  101  A    between atoms: _249  and  _252
REMARK  102  A    between atoms: _252  and  _253
REMARK  103  A    between atoms: _256  and  _258
REMARK  104  A    between atoms: _258  and  _259
REMARK  105  A    between atoms: _258  and  _261
REMARK  106  A    between atoms: _261  and  _262
REMARK  107  A    between atoms: _266  and  _267
REMARK  108  A    between atoms: _272  and  _274
REMARK  109  A    between atoms: _274  and  _275
REMARK  110  A    between atoms: _274  and  _277
REMARK  111  A    between atoms: _277  and  _278
REMARK  112  A    between atoms: _283  and  _284
REMARK  113  A    between atoms: _286  and  _288
REMARK  114  A    between atoms: _288  and  _289
REMARK  115  A    between atoms: _288  and  _291
REMARK  116  A    between atoms: _291  and  _292
REMARK  117  A    between atoms: _297  and  _298
REMARK  118  A    between atoms: _300  and  _302
REMARK  119  A    between atoms: _302  and  _303
REMARK  120  A    between atoms: _302  and  _305
REMARK  121  A    between atoms: _305  and  _306
REMARK  122  A    between atoms: _309  and  _311
REMARK  123  A    between atoms: _311  and  _312
REMARK                            x       y       z     vdW  Elec       q    Type
REMARK                         _______ _______ _______ _____ _____    ______ ____
ROOT
ATOM      1  CA  TYR A   2       3.085   2.149  -0.286  0.00  0.00    +0.153 C 
ENDROOT
BRANCH   1   4
ATOM      2  C   TYR A   1       3.343   1.084   1.897  0.00  0.00    +0.239 C 
ATOM      3  O   TYR A   1       3.656   2.142   2.446  0.00  0.00    -0.274 OA
ATOM      4  N   TYR A   2       3.166   0.980   0.585  0.00  0.00    -0.297 N 
ATOM      5  H   TYR A   2       3.082   0.033   0.163  0.00  0.00    +0.150 HD
BRANCH   2   6
ATOM      6  CA  TYR A   1       3.106  -0.208   2.712  0.00  0.00    +0.149 C 
BRANCH   6   7
ATOM      7  N   TYR A   1       4.265  -0.719   3.471  0.00  0.00    -0.238 NA
ATOM      8  H   TYR A   1       4.105  -1.057   4.442  0.00  0.00    +0.142 HD
ENDBRANCH   6   7
BRANCH   6   9
ATOM      9  CB  TYR A   1       1.912  -0.004   3.658  0.00  0.00    +0.053 C 
BRANCH   9  10
ATOM     10  CG  TYR A   1       0.763   0.832   3.093  0.00  0.00    -0.020 A 
ATOM     11  CD2 TYR A   1       0.302   1.956   3.771  0.00  0.00    -0.001 A 
ATOM     12  CE2 TYR A   1      -0.748   2.717   3.282  0.00  0.00    +0.036 A 
ATOM     13  CZ  TYR A   1      -1.346   2.353   2.069  0.00  0.00    +0.134 A 
ATOM     14  CE1 TYR A   1      -0.901   1.241   1.380  0.00  0.00    +0.036 A 
ATOM     15  CD1 TYR A   1       0.145   0.488   1.889  0.00  0.00    -0.001 A 
BRANCH  13  16
ATOM     16  OH  TYR A   1      -2.379   3.097   1.555  0.00  0.00    -0.506 OA
ATOM     17  HH  TYR A   1      -2.121   3.447   0.665  0.00  0.00    +0.292 HD
ENDBRANCH  13  16
ENDBRANCH   9  10
ENDBRANCH   6   9
ENDBRANCH   2   6
ENDBRANCH   1   4
BRANCH   1  18
ATOM     18  C   TYR A   2       1.858   1.970  -1.182  0.00  0.00    +0.241 C 
ATOM     19  O   TYR A   2       1.502   0.850  -1.504  0.00  0.00    -0.273 OA
ATOM     20  N   ASP A   3       1.201   3.066  -1.555  0.00  0.00    -0.297 N 
ATOM     21  H   ASP A   3       1.598   4.006  -1.353  0.00  0.00    +0.150 HD
BRANCH  20  22
ATOM     22  CA  ASP A   3      -0.076   2.945  -2.247  0.00  0.00    +0.160 C 
BRANCH  22  23
ATOM     23  C   ASP A   3       0.150   3.172  -3.749  0.00  0.00    +0.241 C 
ATOM     24  O   ASP A   3       0.305   4.301  -4.197  0.00  0.00    -0.273 OA
ATOM     25  N   ALA A   4       0.228   2.073  -4.491  0.00  0.00    -0.298 N 
ATOM     26  H   ALA A   4       0.094   1.148  -4.034  0.00  0.00    +0.150 HD
BRANCH  25  27
ATOM     27  CA  ALA A   4       0.496   2.119  -5.932  0.00  0.00    +0.137 C 
ATOM     28  CB  ALA A   4       1.935   2.414  -6.184  0.00  0.00    +0.030 C 
BRANCH  27  29
ATOM     29  C   ALA A   4       0.155   0.785  -6.557  0.00  0.00    +0.227 C 
ATOM     30  O   ALA A   4      -0.070  -0.185  -5.844  0.00  0.00    -0.286 OA
ENDBRANCH  27  29
ENDBRANCH  25  27
ENDBRANCH  22  23
BRANCH  22  31
ATOM     31  CB  ASP A   3      -1.103   3.925  -1.661  0.00  0.00    +0.143 C 
BRANCH  31  32
ATOM     32  CG  ASP A   3      -2.514   3.494  -1.924  0.00  0.00    +0.367 C 
ATOM     33  OD2 ASP A   3      -3.275   3.243  -0.966  0.00  0.00    -0.246 OA
ATOM     34  OD1 ASP A   3      -2.862   3.397  -3.106  0.00  0.00    -0.246 OA
ENDBRANCH  31  32
ENDBRANCH  22  31
ENDBRANCH  20  22
ENDBRANCH   1  18
BRANCH   1  35
ATOM     35  CB  TYR A   2       4.344   2.299  -1.130  0.00  0.00    +0.055 C 
BRANCH  35  36
ATOM     36  CG  TYR A   2       4.696   1.096  -1.979  0.00  0.00    -0.020 A 
ATOM     37  CD2 TYR A   2       4.897  -0.152  -1.403  0.00  0.00    -0.001 A 
ATOM     38  CE2 TYR A   2       5.233  -1.250  -2.174  0.00  0.00    +0.036 A 
ATOM     39  CZ  TYR A   2       5.396  -1.107  -3.541  0.00  0.00    +0.134 A 
ATOM     40  CE1 TYR A   2       5.214   0.119  -4.141  0.00  0.00    +0.036 A 
ATOM     41  CD1 TYR A   2       4.866   1.217  -3.358  0.00  0.00    -0.001 A 
BRANCH  39  42
ATOM     42  OH  TYR A   2       5.740  -2.197  -4.305  0.00  0.00    -0.506 OA
ATOM     43  HH  TYR A   2       6.601  -2.021  -4.761  0.00  0.00    +0.292 HD
ENDBRANCH  39  42
ENDBRANCH  35  36
ENDBRANCH   1  35
TORSDOF 16
REMARK  Name = ../refined-set-2016/3hzm/3hzm_pocket.pdb
REMARK  123 active torsions:
REMARK  status: ('A' for Active; 'I' for Inactive)
REMARK    1  A    between atoms: _1  and  _3
REMARK    2  A    between atoms: _3  and  _4
REMARK    3  A    between atoms: _3  and  _6
REMARK    4  A    between atoms: _6  and  _7
REMARK    5  A    between atoms: _10  and  _12
REMARK    6  A    between atoms: _12  and  _13
REMARK    7  A    between atoms: _12  and  _15
REMARK    8  A    between atoms: _15  and  _16
REMARK    9  A    between atoms: _21  and  _23
REMARK   10  A    between atoms: _23  and  _24
REMARK   11  A    between atoms: _23  and  _26
REMARK   12  A    between atoms: _26  and  _27
REMARK   13  A    between atoms: _27  and  _28
REMARK   14  A    between atoms: _28  and  _29
REMARK   15  A    between atoms: _38  and  _40
REMARK   16  A    between atoms: _40  and  _41
REMARK   17  A    between atoms: _40  and  _43
REMARK   18  A    between atoms: _43  and  _44
REMARK   19  A    between atoms: _47  and  _49
REMARK   20  A    between atoms: _49  and  _50
REMARK   21  A    between atoms: _49  and  _52
REMARK   22  A    between atoms: _52  and  _53
REMARK   23  A    between atoms: _58  and  _59
REMARK   24  A    between atoms: _61  and  _63
REMARK   25  A    between atoms: _63  and  _64
REMARK   26  A    between atoms: _63  and  _66
REMARK   27  A    between atoms: _66  and  _67
REMARK   28  A    between atoms: _77  and  _79
REMARK   29  A    between atoms: _79  and  _80
REMARK   30  A    between atoms: _79  and  _82
REMARK   31  A    between atoms: _82  and  _83
REMARK   32  A    between atoms: _83  and  _84
REMARK   33  A    between atoms: _84  and  _85
REMARK   34  A    between atoms: _85  and  _86
REMARK   35  A    between atoms: _90  and  _92
REMARK   36  A    between atoms: _92  and  _93
REMARK   37  A    between atoms: _92  and  _95
REMARK   38  A    between atoms: _95  and  _96
REMARK   39  A    between atoms: _96  and  _97
REMARK   40  A    between atoms: _102  and  _104
REMARK   41  A    between atoms: _104  and  _105
REMARK   42  A    between atoms: _104  and  _107
REMARK   43  A    between atoms: _107  and  _108
REMARK   44  A    between atoms: _110  and  _112
REMARK   45  A    between atoms: _112  and  _113
REMARK   46  A    between atoms: _112  and  _115
REMARK   47  A    between atoms: _115  and  _116
REMARK   48  A    between atoms: _121  and  _122
REMARK   49  A    between atoms: _124  and  _126
REMARK   50  A    between atoms: _126  and  _127
REMARK   51  A    between atoms: _126  and  _129
REMARK   52  A    between atoms: _129  and  _130
REMARK   53  A    between atoms: _135  and  _137
REMARK   54  A    between atoms: _137  and  _138
REMARK   55  A    between atoms: _137  and  _140
REMARK   56  A    between atoms: _140  and  _141
REMARK   57  A    between atoms: _144  and  _146
REMARK   58  A    between atoms: _146  and  _147
REMARK   59  A    between atoms: _146  and  _149
REMARK   60  A    between atoms: _149  and  _150
REMARK   61  A    between atoms: _150  and  _151
REMARK   62  A    between atoms: _151  and  _152
REMARK   63  A    between atoms: _161  and  _163
REMARK   64  A    between atoms: _163  and  _164
REMARK   65  A    between atoms: _163  and  _166
REMARK   66  A    between atoms: _166  and  _167
REMARK   67  A    between atoms: _172  and  _173
REMARK   68  A    between atoms: _175  and  _177
REMARK   69  A    between atoms: _177  and  _178
REMARK   70  A    between atoms: _177  and  _180
REMARK   71  A    between atoms: _180  and  _181
REMARK   72  A    between atoms: _187  and  _189
REMARK   73  A    between atoms: _189  and  _190
REMARK   74  A    between atoms: _189  and  _192
REMARK   75  A    between atoms: _192  and  _193
REMARK   76  A    between atoms: _193  and  _194
REMARK   77  A    between atoms: _194  and  _195
REMARK   78  A    between atoms: _204  and  _206
REMARK   79  A    between atoms: _206  and  _207
REMARK   80  A    between atoms: _206  and  _209
REMARK   81  A    between atoms: _209  and  _210
REMARK   82  A    between atoms: _215  and  _217
REMARK   83  A    between atoms: _217  and  _218
REMARK   84  A    between atoms: _217  and  _220
REMARK   85  A    between atoms: _220  and  _221
REMARK   86  A    between atoms: _221  and  _222
REMARK   87  A    between atoms: _222  and  _223
REMARK   88  A    between atoms: _223  and  _224
REMARK   89  A    between atoms: _228  and  _230
REMARK   90  A    between atoms: _230  and  _231
REMARK   91  A    between atoms: _230  and  _233
REMARK   92  A    between atoms: _233  and  _234
REMARK   93  A    between atoms: _237  and  _239
REMARK   94  A    between atoms: _239  and  _240
REMARK   95  A    between atoms: _239  and  _242
REMARK   96  A    between atoms: _242  and  _243
REMARK   97  A    between atoms: _243  and  _244
REMARK   98  A    between atoms: _244  and  _246
REMARK   99  A    between atoms: _247  and  _249
REMARK  100  A    between atoms: _249  and  _250
REMARK  101  A    between atoms: _249  and  _252
REMARK  102  A    between atoms: _252  and  _253
REMARK  103  A    between atoms: _256  and  _258
REMARK  104  A    between atoms: _258  and  _259
REMARK  105  A    between atoms: _258  and  _261
REMARK  106  A    between atoms: _261  and  _262
REMARK  107  A    between atoms: _266  and  _267
REMARK  108  A    between atoms: _272  and  _274
REMARK  109  A    between atoms: _274  and  _275
REMARK  110  A    between atoms: _274  and  _277
REMARK  111  A    between atoms: _277  and  _278
REMARK  112  A    between atoms: _283  and  _284
REMARK  113  A    between atoms: _286  and  _288
REMARK  114  A    between atoms: _288  and  _289
REMARK  115  A    between atoms: _288  and  _291
REMARK  116  A    between atoms: _291  and  _292
REMARK  117  A    between atoms: _297  and  _298
REMARK  118  A    between atoms: _300  and  _302
REMARK  119  A    between atoms: _302  and  _303
REMARK  120  A    between atoms: _302  and  _305
REMARK  121  A    between atoms: _305  and  _306
REMARK  122  A    between atoms: _309  and  _311
REMARK  123  A    between atoms: _311  and  _312
REMARK                            x       y       z     vdW  Elec       q    Type
REMARK                         _______ _______ _______ _____ _____    ______ ____
ROOT
ATOM      1  O   HOH     1      -1.673   6.914  -6.064  0.00  0.00    +0.000 OA
ENDROOT
TORSDOF 0
REMARK  Name = ../refined-set-2016/3hzm/3hzm_pocket.pdb
REMARK  123 active torsions:
REMARK  status: ('A' for Active; 'I' for Inactive)
REMARK    1  A    between atoms: _1  and  _3
REMARK    2  A    between atoms: _3  and  _4
REMARK    3  A    between atoms: _3  and  _6
REMARK    4  A    between atoms: _6  and  _7
REMARK    5  A    between atoms: _10  and  _12
REMARK    6  A    between atoms: _12  and  _13
REMARK    7  A    between atoms: _12  and  _15
REMARK    8  A    between atoms: _15  and  _16
REMARK    9  A    between atoms: _21  and  _23
REMARK   10  A    between atoms: _23  and  _24
REMARK   11  A    between atoms: _23  and  _26
REMARK   12  A    between atoms: _26  and  _27
REMARK   13  A    between atoms: _27  and  _28
REMARK   14  A    between atoms: _28  and  _29
REMARK   15  A    between atoms: _38  and  _40
REMARK   16  A    between atoms: _40  and  _41
REMARK   17  A    between atoms: _40  and  _43
REMARK   18  A    between atoms: _43  and  _44
REMARK   19  A    between atoms: _47  and  _49
REMARK   20  A    between atoms: _49  and  _50
REMARK   21  A    between atoms: _49  and  _52
REMARK   22  A    between atoms: _52  and  _53
REMARK   23  A    between atoms: _58  and  _59
REMARK   24  A    between atoms: _61  and  _63
REMARK   25  A    between atoms: _63  and  _64
REMARK   26  A    between atoms: _63  and  _66
REMARK   27  A    between atoms: _66  and  _67
REMARK   28  A    between atoms: _77  and  _79
REMARK   29  A    between atoms: _79  and  _80
REMARK   30  A    between atoms: _79  and  _82
REMARK   31  A    between atoms: _82  and  _83
REMARK   32  A    between atoms: _83  and  _84
REMARK   33  A    between atoms: _84  and  _85
REMARK   34  A    between atoms: _85  and  _86
REMARK   35  A    between atoms: _90  and  _92
REMARK   36  A    between atoms: _92  and  _93
REMARK   37  A    between atoms: _92  and  _95
REMARK   38  A    between atoms: _95  and  _96
REMARK   39  A    between atoms: _96  and  _97
REMARK   40  A    between atoms: _102  and  _104
REMARK   41  A    between atoms: _104  and  _105
REMARK   42  A    between atoms: _104  and  _107
REMARK   43  A    between atoms: _107  and  _108
REMARK   44  A    between atoms: _110  and  _112
REMARK   45  A    between atoms: _112  and  _113
REMARK   46  A    between atoms: _112  and  _115
REMARK   47  A    between atoms: _115  and  _116
REMARK   48  A    between atoms: _121  and  _122
REMARK   49  A    between atoms: _124  and  _126
REMARK   50  A    between atoms: _126  and  _127
REMARK   51  A    between atoms: _126  and  _129
REMARK   52  A    between atoms: _129  and  _130
REMARK   53  A    between atoms: _135  and  _137
REMARK   54  A    between atoms: _137  and  _138
REMARK   55  A    between atoms: _137  and  _140
REMARK   56  A    between atoms: _140  and  _141
REMARK   57  A    between atoms: _144  and  _146
REMARK   58  A    between atoms: _146  and  _147
REMARK   59  A    between atoms: _146  and  _149
REMARK   60  A    between atoms: _149  and  _150
REMARK   61  A    between atoms: _150  and  _151
REMARK   62  A    between atoms: _151  and  _152
REMARK   63  A    between atoms: _161  and  _163
REMARK   64  A    between atoms: _163  and  _164
REMARK   65  A    between atoms: _163  and  _166
REMARK   66  A    between atoms: _166  and  _167
REMARK   67  A    between atoms: _172  and  _173
REMARK   68  A    between atoms: _175  and  _177
REMARK   69  A    between atoms: _177  and  _178
REMARK   70  A    between atoms: _177  and  _180
REMARK   71  A    between atoms: _180  and  _181
REMARK   72  A    between atoms: _187  and  _189
REMARK   73  A    between atoms: _189  and  _190
REMARK   74  A    between atoms: _189  and  _192
REMARK   75  A    between atoms: _192  and  _193
REMARK   76  A    between atoms: _193  and  _194
REMARK   77  A    between atoms: _194  and  _195
REMARK   78  A    between atoms: _204  and  _206
REMARK   79  A    between atoms: _206  and  _207
REMARK   80  A    between atoms: _206  and  _209
REMARK   81  A    between atoms: _209  and  _210
REMARK   82  A    between atoms: _215  and  _217
REMARK   83  A    between atoms: _217  and  _218
REMARK   84  A    between atoms: _217  and  _220
REMARK   85  A    between atoms: _220  and  _221
REMARK   86  A    between atoms: _221  and  _222
REMARK   87  A    between atoms: _222  and  _223
REMARK   88  A    between atoms: _223  and  _224
REMARK   89  A    between atoms: _228  and  _230
REMARK   90  A    between atoms: _230  and  _231
REMARK   91  A    between atoms: _230  and  _233
REMARK   92  A    between atoms: _233  and  _234
REMARK   93  A    between atoms: _237  and  _239
REMARK   94  A    between atoms: _239  and  _240
REMARK   95  A    between atoms: _239  and  _242
REMARK   96  A    between atoms: _242  and  _243
REMARK   97  A    between atoms: _243  and  _244
REMARK   98  A    between atoms: _244  and  _246
REMARK   99  A    between atoms: _247  and  _249
REMARK  100  A    between atoms: _249  and  _250
REMARK  101  A    between atoms: _249  and  _252
REMARK  102  A    between atoms: _252  and  _253
REMARK  103  A    between atoms: _256  and  _258
REMARK  104  A    between atoms: _258  and  _259
REMARK  105  A    between atoms: _258  and  _261
REMARK  106  A    between atoms: _261  and  _262
REMARK  107  A    between atoms: _266  and  _267
REMARK  108  A    between atoms: _272  and  _274
REMARK  109  A    between atoms: _274  and  _275
REMARK  110  A    between atoms: _274  and  _277
REMARK  111  A    between atoms: _277  and  _278
REMARK  112  A    between atoms: _283  and  _284
REMARK  113  A    between atoms: _286  and  _288
REMARK  114  A    between atoms: _288  and  _289
REMARK  115  A    between atoms: _288  and  _291
REMARK  116  A    between atoms: _291  and  _292
REMARK  117  A    between atoms: _297  and  _298
REMARK  118  A    between atoms: _300  and  _302
REMARK  119  A    between atoms: _302  and  _303
REMARK  120  A    between atoms: _302  and  _305
REMARK  121  A    between atoms: _305  and  _306
REMARK  122  A    between atoms: _309  and  _311
REMARK  123  A    between atoms: _311  and  _312
REMARK                            x       y       z     vdW  Elec       q    Type
REMARK                         _______ _______ _______ _____ _____    ______ ____
ROOT
ATOM      1  O   HOH     1     -10.237   3.452  -1.524  0.00  0.00    +0.000 OA
ENDROOT
TORSDOF 0
REMARK  Name = ../refined-set-2016/3hzm/3hzm_pocket.pdb
REMARK  123 active torsions:
REMARK  status: ('A' for Active; 'I' for Inactive)
REMARK    1  A    between atoms: _1  and  _3
REMARK    2  A    between atoms: _3  and  _4
REMARK    3  A    between atoms: _3  and  _6
REMARK    4  A    between atoms: _6  and  _7
REMARK    5  A    between atoms: _10  and  _12
REMARK    6  A    between atoms: _12  and  _13
REMARK    7  A    between atoms: _12  and  _15
REMARK    8  A    between atoms: _15  and  _16
REMARK    9  A    between atoms: _21  and  _23
REMARK   10  A    between atoms: _23  and  _24
REMARK   11  A    between atoms: _23  and  _26
REMARK   12  A    between atoms: _26  and  _27
REMARK   13  A    between atoms: _27  and  _28
REMARK   14  A    between atoms: _28  and  _29
REMARK   15  A    between atoms: _38  and  _40
REMARK   16  A    between atoms: _40  and  _41
REMARK   17  A    between atoms: _40  and  _43
REMARK   18  A    between atoms: _43  and  _44
REMARK   19  A    between atoms: _47  and  _49
REMARK   20  A    between atoms: _49  and  _50
REMARK   21  A    between atoms: _49  and  _52
REMARK   22  A    between atoms: _52  and  _53
REMARK   23  A    between atoms: _58  and  _59
REMARK   24  A    between atoms: _61  and  _63
REMARK   25  A    between atoms: _63  and  _64
REMARK   26  A    between atoms: _63  and  _66
REMARK   27  A    between atoms: _66  and  _67
REMARK   28  A    between atoms: _77  and  _79
REMARK   29  A    between atoms: _79  and  _80
REMARK   30  A    between atoms: _79  and  _82
REMARK   31  A    between atoms: _82  and  _83
REMARK   32  A    between atoms: _83  and  _84
REMARK   33  A    between atoms: _84  and  _85
REMARK   34  A    between atoms: _85  and  _86
REMARK   35  A    between atoms: _90  and  _92
REMARK   36  A    between atoms: _92  and  _93
REMARK   37  A    between atoms: _92  and  _95
REMARK   38  A    between atoms: _95  and  _96
REMARK   39  A    between atoms: _96  and  _97
REMARK   40  A    between atoms: _102  and  _104
REMARK   41  A    between atoms: _104  and  _105
REMARK   42  A    between atoms: _104  and  _107
REMARK   43  A    between atoms: _107  and  _108
REMARK   44  A    between atoms: _110  and  _112
REMARK   45  A    between atoms: _112  and  _113
REMARK   46  A    between atoms: _112  and  _115
REMARK   47  A    between atoms: _115  and  _116
REMARK   48  A    between atoms: _121  and  _122
REMARK   49  A    between atoms: _124  and  _126
REMARK   50  A    between atoms: _126  and  _127
REMARK   51  A    between atoms: _126  and  _129
REMARK   52  A    between atoms: _129  and  _130
REMARK   53  A    between atoms: _135  and  _137
REMARK   54  A    between atoms: _137  and  _138
REMARK   55  A    between atoms: _137  and  _140
REMARK   56  A    between atoms: _140  and  _141
REMARK   57  A    between atoms: _144  and  _146
REMARK   58  A    between atoms: _146  and  _147
REMARK   59  A    between atoms: _146  and  _149
REMARK   60  A    between atoms: _149  and  _150
REMARK   61  A    between atoms: _150  and  _151
REMARK   62  A    between atoms: _151  and  _152
REMARK   63  A    between atoms: _161  and  _163
REMARK   64  A    between atoms: _163  and  _164
REMARK   65  A    between atoms: _163  and  _166
REMARK   66  A    between atoms: _166  and  _167
REMARK   67  A    between atoms: _172  and  _173
REMARK   68  A    between atoms: _175  and  _177
REMARK   69  A    between atoms: _177  and  _178
REMARK   70  A    between atoms: _177  and  _180
REMARK   71  A    between atoms: _180  and  _181
REMARK   72  A    between atoms: _187  and  _189
REMARK   73  A    between atoms: _189  and  _190
REMARK   74  A    between atoms: _189  and  _192
REMARK   75  A    between atoms: _192  and  _193
REMARK   76  A    between atoms: _193  and  _194
REMARK   77  A    between atoms: _194  and  _195
REMARK   78  A    between atoms: _204  and  _206
REMARK   79  A    between atoms: _206  and  _207
REMARK   80  A    between atoms: _206  and  _209
REMARK   81  A    between atoms: _209  and  _210
REMARK   82  A    between atoms: _215  and  _217
REMARK   83  A    between atoms: _217  and  _218
REMARK   84  A    between atoms: _217  and  _220
REMARK   85  A    between atoms: _220  and  _221
REMARK   86  A    between atoms: _221  and  _222
REMARK   87  A    between atoms: _222  and  _223
REMARK   88  A    between atoms: _223  and  _224
REMARK   89  A    between atoms: _228  and  _230
REMARK   90  A    between atoms: _230  and  _231
REMARK   91  A    between atoms: _230  and  _233
REMARK   92  A    between atoms: _233  and  _234
REMARK   93  A    between atoms: _237  and  _239
REMARK   94  A    between atoms: _239  and  _240
REMARK   95  A    between atoms: _239  and  _242
REMARK   96  A    between atoms: _242  and  _243
REMARK   97  A    between atoms: _243  and  _244
REMARK   98  A    between atoms: _244  and  _246
REMARK   99  A    between atoms: _247  and  _249
REMARK  100  A    between atoms: _249  and  _250
REMARK  101  A    between atoms: _249  and  _252
REMARK  102  A    between atoms: _252  and  _253
REMARK  103  A    between atoms: _256  and  _258
REMARK  104  A    between atoms: _258  and  _259
REMARK  105  A    between atoms: _258  and  _261
REMARK  106  A    between atoms: _261  and  _262
REMARK  107  A    between atoms: _266  and  _267
REMARK  108  A    between atoms: _272  and  _274
REMARK  109  A    between atoms: _274  and  _275
REMARK  110  A    between atoms: _274  and  _277
REMARK  111  A    between atoms: _277  and  _278
REMARK  112  A    between atoms: _283  and  _284
REMARK  113  A    between atoms: _286  and  _288
REMARK  114  A    between atoms: _288  and  _289
REMARK  115  A    between atoms: _288  and  _291
REMARK  116  A    between atoms: _291  and  _292
REMARK  117  A    between atoms: _297  and  _298
REMARK  118  A    between atoms: _300  and  _302
REMARK  119  A    between atoms: _302  and  _303
REMARK  120  A    between atoms: _302  and  _305
REMARK  121  A    between atoms: _305  and  _306
REMARK  122  A    between atoms: _309  and  _311
REMARK  123  A    between atoms: _311  and  _312
REMARK                            x       y       z     vdW  Elec       q    Type
REMARK                         _______ _______ _______ _____ _____    ______ ____
ROOT
ATOM      1  O   HOH     1      -2.946   2.055  -5.690  0.00  0.00    +0.000 OA
ENDROOT
TORSDOF 0
REMARK  Name = ../refined-set-2016/3hzm/3hzm_pocket.pdb
REMARK  123 active torsions:
REMARK  status: ('A' for Active; 'I' for Inactive)
REMARK    1  A    between atoms: _1  and  _3
REMARK    2  A    between atoms: _3  and  _4
REMARK    3  A    between atoms: _3  and  _6
REMARK    4  A    between atoms: _6  and  _7
REMARK    5  A    between atoms: _10  and  _12
REMARK    6  A    between atoms: _12  and  _13
REMARK    7  A    between atoms: _12  and  _15
REMARK    8  A    between atoms: _15  and  _16
REMARK    9  A    between atoms: _21  and  _23
REMARK   10  A    between atoms: _23  and  _24
REMARK   11  A    between atoms: _23  and  _26
REMARK   12  A    between atoms: _26  and  _27
REMARK   13  A    between atoms: _27  and  _28
REMARK   14  A    between atoms: _28  and  _29
REMARK   15  A    between atoms: _38  and  _40
REMARK   16  A    between atoms: _40  and  _41
REMARK   17  A    between atoms: _40  and  _43
REMARK   18  A    between atoms: _43  and  _44
REMARK   19  A    between atoms: _47  and  _49
REMARK   20  A    between atoms: _49  and  _50
REMARK   21  A    between atoms: _49  and  _52
REMARK   22  A    between atoms: _52  and  _53
REMARK   23  A    between atoms: _58  and  _59
REMARK   24  A    between atoms: _61  and  _63
REMARK   25  A    between atoms: _63  and  _64
REMARK   26  A    between atoms: _63  and  _66
REMARK   27  A    between atoms: _66  and  _67
REMARK   28  A    between atoms: _77  and  _79
REMARK   29  A    between atoms: _79  and  _80
REMARK   30  A    between atoms: _79  and  _82
REMARK   31  A    between atoms: _82  and  _83
REMARK   32  A    between atoms: _83  and  _84
REMARK   33  A    between atoms: _84  and  _85
REMARK   34  A    between atoms: _85  and  _86
REMARK   35  A    between atoms: _90  and  _92
REMARK   36  A    between atoms: _92  and  _93
REMARK   37  A    between atoms: _92  and  _95
REMARK   38  A    between atoms: _95  and  _96
REMARK   39  A    between atoms: _96  and  _97
REMARK   40  A    between atoms: _102  and  _104
REMARK   41  A    between atoms: _104  and  _105
REMARK   42  A    between atoms: _104  and  _107
REMARK   43  A    between atoms: _107  and  _108
REMARK   44  A    between atoms: _110  and  _112
REMARK   45  A    between atoms: _112  and  _113
REMARK   46  A    between atoms: _112  and  _115
REMARK   47  A    between atoms: _115  and  _116
REMARK   48  A    between atoms: _121  and  _122
REMARK   49  A    between atoms: _124  and  _126
REMARK   50  A    between atoms: _126  and  _127
REMARK   51  A    between atoms: _126  and  _129
REMARK   52  A    between atoms: _129  and  _130
REMARK   53  A    between atoms: _135  and  _137
REMARK   54  A    between atoms: _137  and  _138
REMARK   55  A    between atoms: _137  and  _140
REMARK   56  A    between atoms: _140  and  _141
REMARK   57  A    between atoms: _144  and  _146
REMARK   58  A    between atoms: _146  and  _147
REMARK   59  A    between atoms: _146  and  _149
REMARK   60  A    between atoms: _149  and  _150
REMARK   61  A    between atoms: _150  and  _151
REMARK   62  A    between atoms: _151  and  _152
REMARK   63  A    between atoms: _161  and  _163
REMARK   64  A    between atoms: _163  and  _164
REMARK   65  A    between atoms: _163  and  _166
REMARK   66  A    between atoms: _166  and  _167
REMARK   67  A    between atoms: _172  and  _173
REMARK   68  A    between atoms: _175  and  _177
REMARK   69  A    between atoms: _177  and  _178
REMARK   70  A    between atoms: _177  and  _180
REMARK   71  A    between atoms: _180  and  _181
REMARK   72  A    between atoms: _187  and  _189
REMARK   73  A    between atoms: _189  and  _190
REMARK   74  A    between atoms: _189  and  _192
REMARK   75  A    between atoms: _192  and  _193
REMARK   76  A    between atoms: _193  and  _194
REMARK   77  A    between atoms: _194  and  _195
REMARK   78  A    between atoms: _204  and  _206
REMARK   79  A    between atoms: _206  and  _207
REMARK   80  A    between atoms: _206  and  _209
REMARK   81  A    between atoms: _209  and  _210
REMARK   82  A    between atoms: _215  and  _217
REMARK   83  A    between atoms: _217  and  _218
REMARK   84  A    between atoms: _217  and  _220
REMARK   85  A    between atoms: _220  and  _221
REMARK   86  A    between atoms: _221  and  _222
REMARK   87  A    between atoms: _222  and  _223
REMARK   88  A    between atoms: _223  and  _224
REMARK   89  A    between atoms: _228  and  _230
REMARK   90  A    between atoms: _230  and  _231
REMARK   91  A    between atoms: _230  and  _233
REMARK   92  A    between atoms: _233  and  _234
REMARK   93  A    between atoms: _237  and  _239
REMARK   94  A    between atoms: _239  and  _240
REMARK   95  A    between atoms: _239  and  _242
REMARK   96  A    between atoms: _242  and  _243
REMARK   97  A    between atoms: _243  and  _244
REMARK   98  A    between atoms: _244  and  _246
REMARK   99  A    between atoms: _247  and  _249
REMARK  100  A    between atoms: _249  and  _250
REMARK  101  A    between atoms: _249  and  _252
REMARK  102  A    between atoms: _252  and  _253
REMARK  103  A    between atoms: _256  and  _258
REMARK  104  A    between atoms: _258  and  _259
REMARK  105  A    between atoms: _258  and  _261
REMARK  106  A    between atoms: _261  and  _262
REMARK  107  A    between atoms: _266  and  _267
REMARK  108  A    between atoms: _272  and  _274
REMARK  109  A    between atoms: _274  and  _275
REMARK  110  A    between atoms: _274  and  _277
REMARK  111  A    between atoms: _277  and  _278
REMARK  112  A    between atoms: _283  and  _284
REMARK  113  A    between atoms: _286  and  _288
REMARK  114  A    between atoms: _288  and  _289
REMARK  115  A    between atoms: _288  and  _291
REMARK  116  A    between atoms: _291  and  _292
REMARK  117  A    between atoms: _297  and  _298
REMARK  118  A    between atoms: _300  and  _302
REMARK  119  A    between atoms: _302  and  _303
REMARK  120  A    between atoms: _302  and  _305
REMARK  121  A    between atoms: _305  and  _306
REMARK  122  A    between atoms: _309  and  _311
REMARK  123  A    between atoms: _311  and  _312
REMARK                            x       y       z     vdW  Elec       q    Type
REMARK                         _______ _______ _______ _____ _____    ______ ____
ROOT
ATOM      1  O   HOH     1       0.424   7.085  -4.159  0.00  0.00    +0.000 OA
ENDROOT
TORSDOF 0
REMARK  Name = ../refined-set-2016/3hzm/3hzm_pocket.pdb
REMARK  123 active torsions:
REMARK  status: ('A' for Active; 'I' for Inactive)
REMARK    1  A    between atoms: _1  and  _3
REMARK    2  A    between atoms: _3  and  _4
REMARK    3  A    between atoms: _3  and  _6
REMARK    4  A    between atoms: _6  and  _7
REMARK    5  A    between atoms: _10  and  _12
REMARK    6  A    between atoms: _12  and  _13
REMARK    7  A    between atoms: _12  and  _15
REMARK    8  A    between atoms: _15  and  _16
REMARK    9  A    between atoms: _21  and  _23
REMARK   10  A    between atoms: _23  and  _24
REMARK   11  A    between atoms: _23  and  _26
REMARK   12  A    between atoms: _26  and  _27
REMARK   13  A    between atoms: _27  and  _28
REMARK   14  A    between atoms: _28  and  _29
REMARK   15  A    between atoms: _38  and  _40
REMARK   16  A    between atoms: _40  and  _41
REMARK   17  A    between atoms: _40  and  _43
REMARK   18  A    between atoms: _43  and  _44
REMARK   19  A    between atoms: _47  and  _49
REMARK   20  A    between atoms: _49  and  _50
REMARK   21  A    between atoms: _49  and  _52
REMARK   22  A    between atoms: _52  and  _53
REMARK   23  A    between atoms: _58  and  _59
REMARK   24  A    between atoms: _61  and  _63
REMARK   25  A    between atoms: _63  and  _64
REMARK   26  A    between atoms: _63  and  _66
REMARK   27  A    between atoms: _66  and  _67
REMARK   28  A    between atoms: _77  and  _79
REMARK   29  A    between atoms: _79  and  _80
REMARK   30  A    between atoms: _79  and  _82
REMARK   31  A    between atoms: _82  and  _83
REMARK   32  A    between atoms: _83  and  _84
REMARK   33  A    between atoms: _84  and  _85
REMARK   34  A    between atoms: _85  and  _86
REMARK   35  A    between atoms: _90  and  _92
REMARK   36  A    between atoms: _92  and  _93
REMARK   37  A    between atoms: _92  and  _95
REMARK   38  A    between atoms: _95  and  _96
REMARK   39  A    between atoms: _96  and  _97
REMARK   40  A    between atoms: _102  and  _104
REMARK   41  A    between atoms: _104  and  _105
REMARK   42  A    between atoms: _104  and  _107
REMARK   43  A    between atoms: _107  and  _108
REMARK   44  A    between atoms: _110  and  _112
REMARK   45  A    between atoms: _112  and  _113
REMARK   46  A    between atoms: _112  and  _115
REMARK   47  A    between atoms: _115  and  _116
REMARK   48  A    between atoms: _121  and  _122
REMARK   49  A    between atoms: _124  and  _126
REMARK   50  A    between atoms: _126  and  _127
REMARK   51  A    between atoms: _126  and  _129
REMARK   52  A    between atoms: _129  and  _130
REMARK   53  A    between atoms: _135  and  _137
REMARK   54  A    between atoms: _137  and  _138
REMARK   55  A    between atoms: _137  and  _140
REMARK   56  A    between atoms: _140  and  _141
REMARK   57  A    between atoms: _144  and  _146
REMARK   58  A    between atoms: _146  and  _147
REMARK   59  A    between atoms: _146  and  _149
REMARK   60  A    between atoms: _149  and  _150
REMARK   61  A    between atoms: _150  and  _151
REMARK   62  A    between atoms: _151  and  _152
REMARK   63  A    between atoms: _161  and  _163
REMARK   64  A    between atoms: _163  and  _164
REMARK   65  A    between atoms: _163  and  _166
REMARK   66  A    between atoms: _166  and  _167
REMARK   67  A    between atoms: _172  and  _173
REMARK   68  A    between atoms: _175  and  _177
REMARK   69  A    between atoms: _177  and  _178
REMARK   70  A    between atoms: _177  and  _180
REMARK   71  A    between atoms: _180  and  _181
REMARK   72  A    between atoms: _187  and  _189
REMARK   73  A    between atoms: _189  and  _190
REMARK   74  A    between atoms: _189  and  _192
REMARK   75  A    between atoms: _192  and  _193
REMARK   76  A    between atoms: _193  and  _194
REMARK   77  A    between atoms: _194  and  _195
REMARK   78  A    between atoms: _204  and  _206
REMARK   79  A    between atoms: _206  and  _207
REMARK   80  A    between atoms: _206  and  _209
REMARK   81  A    between atoms: _209  and  _210
REMARK   82  A    between atoms: _215  and  _217
REMARK   83  A    between atoms: _217  and  _218
REMARK   84  A    between atoms: _217  and  _220
REMARK   85  A    between atoms: _220  and  _221
REMARK   86  A    between atoms: _221  and  _222
REMARK   87  A    between atoms: _222  and  _223
REMARK   88  A    between atoms: _223  and  _224
REMARK   89  A    between atoms: _228  and  _230
REMARK   90  A    between atoms: _230  and  _231
REMARK   91  A    between atoms: _230  and  _233
REMARK   92  A    between atoms: _233  and  _234
REMARK   93  A    between atoms: _237  and  _239
REMARK   94  A    between atoms: _239  and  _240
REMARK   95  A    between atoms: _239  and  _242
REMARK   96  A    between atoms: _242  and  _243
REMARK   97  A    between atoms: _243  and  _244
REMARK   98  A    between atoms: _244  and  _246
REMARK   99  A    between atoms: _247  and  _249
REMARK  100  A    between atoms: _249  and  _250
REMARK  101  A    between atoms: _249  and  _252
REMARK  102  A    between atoms: _252  and  _253
REMARK  103  A    between atoms: _256  and  _258
REMARK  104  A    between atoms: _258  and  _259
REMARK  105  A    between atoms: _258  and  _261
REMARK  106  A    between atoms: _261  and  _262
REMARK  107  A    between atoms: _266  and  _267
REMARK  108  A    between atoms: _272  and  _274
REMARK  109  A    between atoms: _274  and  _275
REMARK  110  A    between atoms: _274  and  _277
REMARK  111  A    between atoms: _277  and  _278
REMARK  112  A    between atoms: _283  and  _284
REMARK  113  A    between atoms: _286  and  _288
REMARK  114  A    between atoms: _288  and  _289
REMARK  115  A    between atoms: _288  and  _291
REMARK  116  A    between atoms: _291  and  _292
REMARK  117  A    between atoms: _297  and  _298
REMARK  118  A    between atoms: _300  and  _302
REMARK  119  A    between atoms: _302  and  _303
REMARK  120  A    between atoms: _302  and  _305
REMARK  121  A    between atoms: _305  and  _306
REMARK  122  A    between atoms: _309  and  _311
REMARK  123  A    between atoms: _311  and  _312
REMARK                            x       y       z     vdW  Elec       q    Type
REMARK                         _______ _______ _______ _____ _____    ______ ____
ROOT
ATOM      1  O   HOH     1      -8.508   0.612   4.424  0.00  0.00    +0.000 OA
ENDROOT
TORSDOF 0
REMARK  Name = ../refined-set-2016/3hzm/3hzm_pocket.pdb
REMARK  123 active torsions:
REMARK  status: ('A' for Active; 'I' for Inactive)
REMARK    1  A    between atoms: _1  and  _3
REMARK    2  A    between atoms: _3  and  _4
REMARK    3  A    between atoms: _3  and  _6
REMARK    4  A    between atoms: _6  and  _7
REMARK    5  A    between atoms: _10  and  _12
REMARK    6  A    between atoms: _12  and  _13
REMARK    7  A    between atoms: _12  and  _15
REMARK    8  A    between atoms: _15  and  _16
REMARK    9  A    between atoms: _21  and  _23
REMARK   10  A    between atoms: _23  and  _24
REMARK   11  A    between atoms: _23  and  _26
REMARK   12  A    between atoms: _26  and  _27
REMARK   13  A    between atoms: _27  and  _28
REMARK   14  A    between atoms: _28  and  _29
REMARK   15  A    between atoms: _38  and  _40
REMARK   16  A    between atoms: _40  and  _41
REMARK   17  A    between atoms: _40  and  _43
REMARK   18  A    between atoms: _43  and  _44
REMARK   19  A    between atoms: _47  and  _49
REMARK   20  A    between atoms: _49  and  _50
REMARK   21  A    between atoms: _49  and  _52
REMARK   22  A    between atoms: _52  and  _53
REMARK   23  A    between atoms: _58  and  _59
REMARK   24  A    between atoms: _61  and  _63
REMARK   25  A    between atoms: _63  and  _64
REMARK   26  A    between atoms: _63  and  _66
REMARK   27  A    between atoms: _66  and  _67
REMARK   28  A    between atoms: _77  and  _79
REMARK   29  A    between atoms: _79  and  _80
REMARK   30  A    between atoms: _79  and  _82
REMARK   31  A    between atoms: _82  and  _83
REMARK   32  A    between atoms: _83  and  _84
REMARK   33  A    between atoms: _84  and  _85
REMARK   34  A    between atoms: _85  and  _86
REMARK   35  A    between atoms: _90  and  _92
REMARK   36  A    between atoms: _92  and  _93
REMARK   37  A    between atoms: _92  and  _95
REMARK   38  A    between atoms: _95  and  _96
REMARK   39  A    between atoms: _96  and  _97
REMARK   40  A    between atoms: _102  and  _104
REMARK   41  A    between atoms: _104  and  _105
REMARK   42  A    between atoms: _104  and  _107
REMARK   43  A    between atoms: _107  and  _108
REMARK   44  A    between atoms: _110  and  _112
REMARK   45  A    between atoms: _112  and  _113
REMARK   46  A    between atoms: _112  and  _115
REMARK   47  A    between atoms: _115  and  _116
REMARK   48  A    between atoms: _121  and  _122
REMARK   49  A    between atoms: _124  and  _126
REMARK   50  A    between atoms: _126  and  _127
REMARK   51  A    between atoms: _126  and  _129
REMARK   52  A    between atoms: _129  and  _130
REMARK   53  A    between atoms: _135  and  _137
REMARK   54  A    between atoms: _137  and  _138
REMARK   55  A    between atoms: _137  and  _140
REMARK   56  A    between atoms: _140  and  _141
REMARK   57  A    between atoms: _144  and  _146
REMARK   58  A    between atoms: _146  and  _147
REMARK   59  A    between atoms: _146  and  _149
REMARK   60  A    between atoms: _149  and  _150
REMARK   61  A    between atoms: _150  and  _151
REMARK   62  A    between atoms: _151  and  _152
REMARK   63  A    between atoms: _161  and  _163
REMARK   64  A    between atoms: _163  and  _164
REMARK   65  A    between atoms: _163  and  _166
REMARK   66  A    between atoms: _166  and  _167
REMARK   67  A    between atoms: _172  and  _173
REMARK   68  A    between atoms: _175  and  _177
REMARK   69  A    between atoms: _177  and  _178
REMARK   70  A    between atoms: _177  and  _180
REMARK   71  A    between atoms: _180  and  _181
REMARK   72  A    between atoms: _187  and  _189
REMARK   73  A    between atoms: _189  and  _190
REMARK   74  A    between atoms: _189  and  _192
REMARK   75  A    between atoms: _192  and  _193
REMARK   76  A    between atoms: _193  and  _194
REMARK   77  A    between atoms: _194  and  _195
REMARK   78  A    between atoms: _204  and  _206
REMARK   79  A    between atoms: _206  and  _207
REMARK   80  A    between atoms: _206  and  _209
REMARK   81  A    between atoms: _209  and  _210
REMARK   82  A    between atoms: _215  and  _217
REMARK   83  A    between atoms: _217  and  _218
REMARK   84  A    between atoms: _217  and  _220
REMARK   85  A    between atoms: _220  and  _221
REMARK   86  A    between atoms: _221  and  _222
REMARK   87  A    between atoms: _222  and  _223
REMARK   88  A    between atoms: _223  and  _224
REMARK   89  A    between atoms: _228  and  _230
REMARK   90  A    between atoms: _230  and  _231
REMARK   91  A    between atoms: _230  and  _233
REMARK   92  A    between atoms: _233  and  _234
REMARK   93  A    between atoms: _237  and  _239
REMARK   94  A    between atoms: _239  and  _240
REMARK   95  A    between atoms: _239  and  _242
REMARK   96  A    between atoms: _242  and  _243
REMARK   97  A    between atoms: _243  and  _244
REMARK   98  A    between atoms: _244  and  _246
REMARK   99  A    between atoms: _247  and  _249
REMARK  100  A    between atoms: _249  and  _250
REMARK  101  A    between atoms: _249  and  _252
REMARK  102  A    between atoms: _252  and  _253
REMARK  103  A    between atoms: _256  and  _258
REMARK  104  A    between atoms: _258  and  _259
REMARK  105  A    between atoms: _258  and  _261
REMARK  106  A    between atoms: _261  and  _262
REMARK  107  A    between atoms: _266  and  _267
REMARK  108  A    between atoms: _272  and  _274
REMARK  109  A    between atoms: _274  and  _275
REMARK  110  A    between atoms: _274  and  _277
REMARK  111  A    between atoms: _277  and  _278
REMARK  112  A    between atoms: _283  and  _284
REMARK  113  A    between atoms: _286  and  _288
REMARK  114  A    between atoms: _288  and  _289
REMARK  115  A    between atoms: _288  and  _291
REMARK  116  A    between atoms: _291  and  _292
REMARK  117  A    between atoms: _297  and  _298
REMARK  118  A    between atoms: _300  and  _302
REMARK  119  A    between atoms: _302  and  _303
REMARK  120  A    between atoms: _302  and  _305
REMARK  121  A    between atoms: _305  and  _306
REMARK  122  A    between atoms: _309  and  _311
REMARK  123  A    between atoms: _311  and  _312
REMARK                            x       y       z     vdW  Elec       q    Type
REMARK                         _______ _______ _______ _____ _____    ______ ____
ROOT
ATOM      1  O   HOH     1     -11.771   2.932   1.463  0.00  0.00    +0.000 OA
ENDROOT
TORSDOF 0
REMARK  Name = ../refined-set-2016/3hzm/3hzm_pocket.pdb
REMARK  123 active torsions:
REMARK  status: ('A' for Active; 'I' for Inactive)
REMARK    1  A    between atoms: _1  and  _3
REMARK    2  A    between atoms: _3  and  _4
REMARK    3  A    between atoms: _3  and  _6
REMARK    4  A    between atoms: _6  and  _7
REMARK    5  A    between atoms: _10  and  _12
REMARK    6  A    between atoms: _12  and  _13
REMARK    7  A    between atoms: _12  and  _15
REMARK    8  A    between atoms: _15  and  _16
REMARK    9  A    between atoms: _21  and  _23
REMARK   10  A    between atoms: _23  and  _24
REMARK   11  A    between atoms: _23  and  _26
REMARK   12  A    between atoms: _26  and  _27
REMARK   13  A    between atoms: _27  and  _28
REMARK   14  A    between atoms: _28  and  _29
REMARK   15  A    between atoms: _38  and  _40
REMARK   16  A    between atoms: _40  and  _41
REMARK   17  A    between atoms: _40  and  _43
REMARK   18  A    between atoms: _43  and  _44
REMARK   19  A    between atoms: _47  and  _49
REMARK   20  A    between atoms: _49  and  _50
REMARK   21  A    between atoms: _49  and  _52
REMARK   22  A    between atoms: _52  and  _53
REMARK   23  A    between atoms: _58  and  _59
REMARK   24  A    between atoms: _61  and  _63
REMARK   25  A    between atoms: _63  and  _64
REMARK   26  A    between atoms: _63  and  _66
REMARK   27  A    between atoms: _66  and  _67
REMARK   28  A    between atoms: _77  and  _79
REMARK   29  A    between atoms: _79  and  _80
REMARK   30  A    between atoms: _79  and  _82
REMARK   31  A    between atoms: _82  and  _83
REMARK   32  A    between atoms: _83  and  _84
REMARK   33  A    between atoms: _84  and  _85
REMARK   34  A    between atoms: _85  and  _86
REMARK   35  A    between atoms: _90  and  _92
REMARK   36  A    between atoms: _92  and  _93
REMARK   37  A    between atoms: _92  and  _95
REMARK   38  A    between atoms: _95  and  _96
REMARK   39  A    between atoms: _96  and  _97
REMARK   40  A    between atoms: _102  and  _104
REMARK   41  A    between atoms: _104  and  _105
REMARK   42  A    between atoms: _104  and  _107
REMARK   43  A    between atoms: _107  and  _108
REMARK   44  A    between atoms: _110  and  _112
REMARK   45  A    between atoms: _112  and  _113
REMARK   46  A    between atoms: _112  and  _115
REMARK   47  A    between atoms: _115  and  _116
REMARK   48  A    between atoms: _121  and  _122
REMARK   49  A    between atoms: _124  and  _126
REMARK   50  A    between atoms: _126  and  _127
REMARK   51  A    between atoms: _126  and  _129
REMARK   52  A    between atoms: _129  and  _130
REMARK   53  A    between atoms: _135  and  _137
REMARK   54  A    between atoms: _137  and  _138
REMARK   55  A    between atoms: _137  and  _140
REMARK   56  A    between atoms: _140  and  _141
REMARK   57  A    between atoms: _144  and  _146
REMARK   58  A    between atoms: _146  and  _147
REMARK   59  A    between atoms: _146  and  _149
REMARK   60  A    between atoms: _149  and  _150
REMARK   61  A    between atoms: _150  and  _151
REMARK   62  A    between atoms: _151  and  _152
REMARK   63  A    between atoms: _161  and  _163
REMARK   64  A    between atoms: _163  and  _164
REMARK   65  A    between atoms: _163  and  _166
REMARK   66  A    between atoms: _166  and  _167
REMARK   67  A    between atoms: _172  and  _173
REMARK   68  A    between atoms: _175  and  _177
REMARK   69  A    between atoms: _177  and  _178
REMARK   70  A    between atoms: _177  and  _180
REMARK   71  A    between atoms: _180  and  _181
REMARK   72  A    between atoms: _187  and  _189
REMARK   73  A    between atoms: _189  and  _190
REMARK   74  A    between atoms: _189  and  _192
REMARK   75  A    between atoms: _192  and  _193
REMARK   76  A    between atoms: _193  and  _194
REMARK   77  A    between atoms: _194  and  _195
REMARK   78  A    between atoms: _204  and  _206
REMARK   79  A    between atoms: _206  and  _207
REMARK   80  A    between atoms: _206  and  _209
REMARK   81  A    between atoms: _209  and  _210
REMARK   82  A    between atoms: _215  and  _217
REMARK   83  A    between atoms: _217  and  _218
REMARK   84  A    between atoms: _217  and  _220
REMARK   85  A    between atoms: _220  and  _221
REMARK   86  A    between atoms: _221  and  _222
REMARK   87  A    between atoms: _222  and  _223
REMARK   88  A    between atoms: _223  and  _224
REMARK   89  A    between atoms: _228  and  _230
REMARK   90  A    between atoms: _230  and  _231
REMARK   91  A    between atoms: _230  and  _233
REMARK   92  A    between atoms: _233  and  _234
REMARK   93  A    between atoms: _237  and  _239
REMARK   94  A    between atoms: _239  and  _240
REMARK   95  A    between atoms: _239  and  _242
REMARK   96  A    between atoms: _242  and  _243
REMARK   97  A    between atoms: _243  and  _244
REMARK   98  A    between atoms: _244  and  _246
REMARK   99  A    between atoms: _247  and  _249
REMARK  100  A    between atoms: _249  and  _250
REMARK  101  A    between atoms: _249  and  _252
REMARK  102  A    between atoms: _252  and  _253
REMARK  103  A    between atoms: _256  and  _258
REMARK  104  A    between atoms: _258  and  _259
REMARK  105  A    between atoms: _258  and  _261
REMARK  106  A    between atoms: _261  and  _262
REMARK  107  A    between atoms: _266  and  _267
REMARK  108  A    between atoms: _272  and  _274
REMARK  109  A    between atoms: _274  and  _275
REMARK  110  A    between atoms: _274  and  _277
REMARK  111  A    between atoms: _277  and  _278
REMARK  112  A    between atoms: _283  and  _284
REMARK  113  A    between atoms: _286  and  _288
REMARK  114  A    between atoms: _288  and  _289
REMARK  115  A    between atoms: _288  and  _291
REMARK  116  A    between atoms: _291  and  _292
REMARK  117  A    between atoms: _297  and  _298
REMARK  118  A    between atoms: _300  and  _302
REMARK  119  A    between atoms: _302  and  _303
REMARK  120  A    between atoms: _302  and  _305
REMARK  121  A    between atoms: _305  and  _306
REMARK  122  A    between atoms: _309  and  _311
REMARK  123  A    between atoms: _311  and  _312
REMARK                            x       y       z     vdW  Elec       q    Type
REMARK                         _______ _______ _______ _____ _____    ______ ____
ROOT
ATOM      1  O   HOH     1     -13.399  -5.032   3.593  0.00  0.00    +0.000 OA
ENDROOT
TORSDOF 0
REMARK  Name = ../refined-set-2016/3hzm/3hzm_pocket.pdb
REMARK  123 active torsions:
REMARK  status: ('A' for Active; 'I' for Inactive)
REMARK    1  A    between atoms: _1  and  _3
REMARK    2  A    between atoms: _3  and  _4
REMARK    3  A    between atoms: _3  and  _6
REMARK    4  A    between atoms: _6  and  _7
REMARK    5  A    between atoms: _10  and  _12
REMARK    6  A    between atoms: _12  and  _13
REMARK    7  A    between atoms: _12  and  _15
REMARK    8  A    between atoms: _15  and  _16
REMARK    9  A    between atoms: _21  and  _23
REMARK   10  A    between atoms: _23  and  _24
REMARK   11  A    between atoms: _23  and  _26
REMARK   12  A    between atoms: _26  and  _27
REMARK   13  A    between atoms: _27  and  _28
REMARK   14  A    between atoms: _28  and  _29
REMARK   15  A    between atoms: _38  and  _40
REMARK   16  A    between atoms: _40  and  _41
REMARK   17  A    between atoms: _40  and  _43
REMARK   18  A    between atoms: _43  and  _44
REMARK   19  A    between atoms: _47  and  _49
REMARK   20  A    between atoms: _49  and  _50
REMARK   21  A    between atoms: _49  and  _52
REMARK   22  A    between atoms: _52  and  _53
REMARK   23  A    between atoms: _58  and  _59
REMARK   24  A    between atoms: _61  and  _63
REMARK   25  A    between atoms: _63  and  _64
REMARK   26  A    between atoms: _63  and  _66
REMARK   27  A    between atoms: _66  and  _67
REMARK   28  A    between atoms: _77  and  _79
REMARK   29  A    between atoms: _79  and  _80
REMARK   30  A    between atoms: _79  and  _82
REMARK   31  A    between atoms: _82  and  _83
REMARK   32  A    between atoms: _83  and  _84
REMARK   33  A    between atoms: _84  and  _85
REMARK   34  A    between atoms: _85  and  _86
REMARK   35  A    between atoms: _90  and  _92
REMARK   36  A    between atoms: _92  and  _93
REMARK   37  A    between atoms: _92  and  _95
REMARK   38  A    between atoms: _95  and  _96
REMARK   39  A    between atoms: _96  and  _97
REMARK   40  A    between atoms: _102  and  _104
REMARK   41  A    between atoms: _104  and  _105
REMARK   42  A    between atoms: _104  and  _107
REMARK   43  A    between atoms: _107  and  _108
REMARK   44  A    between atoms: _110  and  _112
REMARK   45  A    between atoms: _112  and  _113
REMARK   46  A    between atoms: _112  and  _115
REMARK   47  A    between atoms: _115  and  _116
REMARK   48  A    between atoms: _121  and  _122
REMARK   49  A    between atoms: _124  and  _126
REMARK   50  A    between atoms: _126  and  _127
REMARK   51  A    between atoms: _126  and  _129
REMARK   52  A    between atoms: _129  and  _130
REMARK   53  A    between atoms: _135  and  _137
REMARK   54  A    between atoms: _137  and  _138
REMARK   55  A    between atoms: _137  and  _140
REMARK   56  A    between atoms: _140  and  _141
REMARK   57  A    between atoms: _144  and  _146
REMARK   58  A    between atoms: _146  and  _147
REMARK   59  A    between atoms: _146  and  _149
REMARK   60  A    between atoms: _149  and  _150
REMARK   61  A    between atoms: _150  and  _151
REMARK   62  A    between atoms: _151  and  _152
REMARK   63  A    between atoms: _161  and  _163
REMARK   64  A    between atoms: _163  and  _164
REMARK   65  A    between atoms: _163  and  _166
REMARK   66  A    between atoms: _166  and  _167
REMARK   67  A    between atoms: _172  and  _173
REMARK   68  A    between atoms: _175  and  _177
REMARK   69  A    between atoms: _177  and  _178
REMARK   70  A    between atoms: _177  and  _180
REMARK   71  A    between atoms: _180  and  _181
REMARK   72  A    between atoms: _187  and  _189
REMARK   73  A    between atoms: _189  and  _190
REMARK   74  A    between atoms: _189  and  _192
REMARK   75  A    between atoms: _192  and  _193
REMARK   76  A    between atoms: _193  and  _194
REMARK   77  A    between atoms: _194  and  _195
REMARK   78  A    between atoms: _204  and  _206
REMARK   79  A    between atoms: _206  and  _207
REMARK   80  A    between atoms: _206  and  _209
REMARK   81  A    between atoms: _209  and  _210
REMARK   82  A    between atoms: _215  and  _217
REMARK   83  A    between atoms: _217  and  _218
REMARK   84  A    between atoms: _217  and  _220
REMARK   85  A    between atoms: _220  and  _221
REMARK   86  A    between atoms: _221  and  _222
REMARK   87  A    between atoms: _222  and  _223
REMARK   88  A    between atoms: _223  and  _224
REMARK   89  A    between atoms: _228  and  _230
REMARK   90  A    between atoms: _230  and  _231
REMARK   91  A    between atoms: _230  and  _233
REMARK   92  A    between atoms: _233  and  _234
REMARK   93  A    between atoms: _237  and  _239
REMARK   94  A    between atoms: _239  and  _240
REMARK   95  A    between atoms: _239  and  _242
REMARK   96  A    between atoms: _242  and  _243
REMARK   97  A    between atoms: _243  and  _244
REMARK   98  A    between atoms: _244  and  _246
REMARK   99  A    between atoms: _247  and  _249
REMARK  100  A    between atoms: _249  and  _250
REMARK  101  A    between atoms: _249  and  _252
REMARK  102  A    between atoms: _252  and  _253
REMARK  103  A    between atoms: _256  and  _258
REMARK  104  A    between atoms: _258  and  _259
REMARK  105  A    between atoms: _258  and  _261
REMARK  106  A    between atoms: _261  and  _262
REMARK  107  A    between atoms: _266  and  _267
REMARK  108  A    between atoms: _272  and  _274
REMARK  109  A    between atoms: _274  and  _275
REMARK  110  A    between atoms: _274  and  _277
REMARK  111  A    between atoms: _277  and  _278
REMARK  112  A    between atoms: _283  and  _284
REMARK  113  A    between atoms: _286  and  _288
REMARK  114  A    between atoms: _288  and  _289
REMARK  115  A    between atoms: _288  and  _291
REMARK  116  A    between atoms: _291  and  _292
REMARK  117  A    between atoms: _297  and  _298
REMARK  118  A    between atoms: _300  and  _302
REMARK  119  A    between atoms: _302  and  _303
REMARK  120  A    between atoms: _302  and  _305
REMARK  121  A    between atoms: _305  and  _306
REMARK  122  A    between atoms: _309  and  _311
REMARK  123  A    between atoms: _311  and  _312
REMARK                            x       y       z     vdW  Elec       q    Type
REMARK                         _______ _______ _______ _____ _____    ______ ____
ROOT
ATOM      1  O   HOH     1     -12.377   5.673   2.353  0.00  0.00    +0.000 OA
ENDROOT
TORSDOF 0
