REMARK  Name = ../refined-set-2016/1sdv/1sdv_pocket.pdb
REMARK  234 active torsions:
REMARK  status: ('A' for Active; 'I' for Inactive)
REMARK    1  A    between atoms: _1  and  _3
REMARK    2  A    between atoms: _3  and  _4
REMARK    3  A    between atoms: _3  and  _6
REMARK    4  A    between atoms: _6  and  _7
REMARK    5  A    between atoms: _7  and  _8
REMARK    6  A    between atoms: _8  and  _9
REMARK    7  A    between atoms: _18  and  _20
REMARK    8  A    between atoms: _20  and  _21
REMARK    9  A    between atoms: _20  and  _23
REMARK   10  A    between atoms: _23  and  _24
REMARK   11  A    between atoms: _27  and  _29
REMARK   12  A    between atoms: _29  and  _30
REMARK   13  A    between atoms: _29  and  _32
REMARK   14  A    between atoms: _32  and  _33
REMARK   15  A    between atoms: _36  and  _38
REMARK   16  A    between atoms: _38  and  _39
REMARK   17  A    between atoms: _38  and  _41
REMARK   18  A    between atoms: _41  and  _42
REMARK   19  A    between atoms: _45  and  _47
REMARK   20  A    between atoms: _47  and  _48
REMARK   21  A    between atoms: _47  and  _50
REMARK   22  A    between atoms: _50  and  _51
REMARK   23  A    between atoms: _54  and  _56
REMARK   24  A    between atoms: _56  and  _57
REMARK   25  A    between atoms: _56  and  _59
REMARK   26  A    between atoms: _59  and  _60
REMARK   27  A    between atoms: _63  and  _65
REMARK   28  A    between atoms: _65  and  _66
REMARK   29  A    between atoms: _68  and  _70
REMARK   30  A    between atoms: _70  and  _71
REMARK   31  A    between atoms: _74  and  _76
REMARK   32  A    between atoms: _76  and  _77
REMARK   33  A    between atoms: _76  and  _79
REMARK   34  A    between atoms: _79  and  _80
REMARK   35  A    between atoms: _83  and  _85
REMARK   36  A    between atoms: _85  and  _86
REMARK   37  A    between atoms: _85  and  _88
REMARK   38  A    between atoms: _88  and  _89
REMARK   39  A    between atoms: _92  and  _94
REMARK   40  A    between atoms: _94  and  _95
REMARK   41  A    between atoms: _94  and  _97
REMARK   42  A    between atoms: _97  and  _98
REMARK   43  A    between atoms: _101  and  _103
REMARK   44  A    between atoms: _103  and  _104
REMARK   45  A    between atoms: _103  and  _106
REMARK   46  A    between atoms: _109  and  _111
REMARK   47  A    between atoms: _111  and  _112
REMARK   48  A    between atoms: _111  and  _114
REMARK   49  A    between atoms: _114  and  _115
REMARK   50  A    between atoms: _115  and  _116
REMARK   51  A    between atoms: _116  and  _117
REMARK   52  A    between atoms: _117  and  _118
REMARK   53  A    between atoms: _122  and  _124
REMARK   54  A    between atoms: _124  and  _125
REMARK   55  A    between atoms: _124  and  _127
REMARK   56  A    between atoms: _127  and  _128
REMARK   57  A    between atoms: _128  and  _129
REMARK   58  A    between atoms: _131  and  _133
REMARK   59  A    between atoms: _133  and  _134
REMARK   60  A    between atoms: _133  and  _136
REMARK   61  A    between atoms: _136  and  _137
REMARK   62  A    between atoms: _140  and  _142
REMARK   63  A    between atoms: _142  and  _143
REMARK   64  A    between atoms: _145  and  _147
REMARK   65  A    between atoms: _147  and  _148
REMARK   66  A    between atoms: _150  and  _152
REMARK   67  A    between atoms: _152  and  _153
REMARK   68  A    between atoms: _152  and  _155
REMARK   69  A    between atoms: _155  and  _156
REMARK   70  A    between atoms: _159  and  _161
REMARK   71  A    between atoms: _161  and  _162
REMARK   72  A    between atoms: _164  and  _166
REMARK   73  A    between atoms: _166  and  _167
REMARK   74  A    between atoms: _169  and  _171
REMARK   75  A    between atoms: _171  and  _172
REMARK   76  A    between atoms: _171  and  _174
REMARK   77  A    between atoms: _174  and  _175
REMARK   78  A    between atoms: _181  and  _183
REMARK   79  A    between atoms: _183  and  _184
REMARK   80  A    between atoms: _183  and  _186
REMARK   81  A    between atoms: _186  and  _187
REMARK   82  A    between atoms: _190  and  _192
REMARK   83  A    between atoms: _192  and  _193
REMARK   84  A    between atoms: _192  and  _195
REMARK   85  A    between atoms: _198  and  _200
REMARK   86  A    between atoms: _200  and  _201
REMARK   87  A    between atoms: _200  and  _203
REMARK   88  A    between atoms: _203  and  _204
REMARK   89  A    between atoms: _207  and  _209
REMARK   90  A    between atoms: _209  and  _210
REMARK   91  A    between atoms: _209  and  _212
REMARK   92  A    between atoms: _212  and  _213
REMARK   93  A    between atoms: _217  and  _218
REMARK   94  A    between atoms: _223  and  _225
REMARK   95  A    between atoms: _225  and  _226
REMARK   96  A    between atoms: _229  and  _231
REMARK   97  A    between atoms: _231  and  _232
REMARK   98  A    between atoms: _231  and  _234
REMARK   99  A    between atoms: _234  and  _235
REMARK  100  A    between atoms: _240  and  _242
REMARK  101  A    between atoms: _242  and  _243
REMARK  102  A    between atoms: _242  and  _245
REMARK  103  A    between atoms: _245  and  _246
REMARK  104  A    between atoms: _249  and  _251
REMARK  105  A    between atoms: _251  and  _252
REMARK  106  A    between atoms: _251  and  _254
REMARK  107  A    between atoms: _254  and  _255
REMARK  108  A    between atoms: _258  and  _260
REMARK  109  A    between atoms: _260  and  _261
REMARK  110  A    between atoms: _263  and  _265
REMARK  111  A    between atoms: _265  and  _266
REMARK  112  A    between atoms: _265  and  _268
REMARK  113  A    between atoms: _268  and  _269
REMARK  114  A    between atoms: _269  and  _270
REMARK  115  A    between atoms: _270  and  _271
REMARK  116  A    between atoms: _280  and  _282
REMARK  117  A    between atoms: _282  and  _283
REMARK  118  A    between atoms: _282  and  _285
REMARK  119  A    between atoms: _285  and  _286
REMARK  120  A    between atoms: _286  and  _287
REMARK  121  A    between atoms: _287  and  _288
REMARK  122  A    between atoms: _297  and  _299
REMARK  123  A    between atoms: _299  and  _300
REMARK  124  A    between atoms: _299  and  _302
REMARK  125  A    between atoms: _302  and  _303
REMARK  126  A    between atoms: _306  and  _308
REMARK  127  A    between atoms: _308  and  _309
REMARK  128  A    between atoms: _308  and  _311
REMARK  129  A    between atoms: _311  and  _312
REMARK  130  A    between atoms: _315  and  _317
REMARK  131  A    between atoms: _317  and  _318
REMARK  132  A    between atoms: _317  and  _320
REMARK  133  A    between atoms: _320  and  _321
REMARK  134  A    between atoms: _324  and  _326
REMARK  135  A    between atoms: _326  and  _327
REMARK  136  A    between atoms: _326  and  _329
REMARK  137  A    between atoms: _329  and  _330
REMARK  138  A    between atoms: _333  and  _335
REMARK  139  A    between atoms: _335  and  _336
REMARK  140  A    between atoms: _338  and  _340
REMARK  141  A    between atoms: _340  and  _341
REMARK  142  A    between atoms: _344  and  _346
REMARK  143  A    between atoms: _346  and  _347
REMARK  144  A    between atoms: _346  and  _349
REMARK  145  A    between atoms: _349  and  _350
REMARK  146  A    between atoms: _353  and  _355
REMARK  147  A    between atoms: _355  and  _356
REMARK  148  A    between atoms: _355  and  _358
REMARK  149  A    between atoms: _358  and  _359
REMARK  150  A    between atoms: _362  and  _364
REMARK  151  A    between atoms: _364  and  _365
REMARK  152  A    between atoms: _364  and  _367
REMARK  153  A    between atoms: _367  and  _368
REMARK  154  A    between atoms: _371  and  _373
REMARK  155  A    between atoms: _373  and  _374
REMARK  156  A    between atoms: _373  and  _376
REMARK  157  A    between atoms: _379  and  _381
REMARK  158  A    between atoms: _381  and  _382
REMARK  159  A    between atoms: _381  and  _384
REMARK  160  A    between atoms: _384  and  _385
REMARK  161  A    between atoms: _388  and  _390
REMARK  162  A    between atoms: _390  and  _391
REMARK  163  A    between atoms: _390  and  _393
REMARK  164  A    between atoms: _393  and  _394
REMARK  165  A    between atoms: _394  and  _395
REMARK  166  A    between atoms: _395  and  _396
REMARK  167  A    between atoms: _396  and  _397
REMARK  168  A    between atoms: _401  and  _403
REMARK  169  A    between atoms: _403  and  _404
REMARK  170  A    between atoms: _403  and  _406
REMARK  171  A    between atoms: _406  and  _407
REMARK  172  A    between atoms: _407  and  _408
REMARK  173  A    between atoms: _410  and  _412
REMARK  174  A    between atoms: _412  and  _413
REMARK  175  A    between atoms: _412  and  _415
REMARK  176  A    between atoms: _415  and  _416
REMARK  177  A    between atoms: _419  and  _421
REMARK  178  A    between atoms: _421  and  _422
REMARK  179  A    between atoms: _424  and  _426
REMARK  180  A    between atoms: _426  and  _427
REMARK  181  A    between atoms: _429  and  _431
REMARK  182  A    between atoms: _431  and  _432
REMARK  183  A    between atoms: _431  and  _434
REMARK  184  A    between atoms: _434  and  _435
REMARK  185  A    between atoms: _438  and  _440
REMARK  186  A    between atoms: _440  and  _441
REMARK  187  A    between atoms: _443  and  _445
REMARK  188  A    between atoms: _445  and  _446
REMARK  189  A    between atoms: _448  and  _450
REMARK  190  A    between atoms: _450  and  _451
REMARK  191  A    between atoms: _450  and  _453
REMARK  192  A    between atoms: _453  and  _454
REMARK  193  A    between atoms: _460  and  _462
REMARK  194  A    between atoms: _462  and  _463
REMARK  195  A    between atoms: _462  and  _465
REMARK  196  A    between atoms: _465  and  _466
REMARK  197  A    between atoms: _469  and  _471
REMARK  198  A    between atoms: _471  and  _472
REMARK  199  A    between atoms: _471  and  _474
REMARK  200  A    between atoms: _477  and  _479
REMARK  201  A    between atoms: _479  and  _480
REMARK  202  A    between atoms: _479  and  _482
REMARK  203  A    between atoms: _482  and  _483
REMARK  204  A    between atoms: _486  and  _488
REMARK  205  A    between atoms: _488  and  _489
REMARK  206  A    between atoms: _488  and  _491
REMARK  207  A    between atoms: _491  and  _492
REMARK  208  A    between atoms: _496  and  _497
REMARK  209  A    between atoms: _502  and  _504
REMARK  210  A    between atoms: _504  and  _505
REMARK  211  A    between atoms: _508  and  _510
REMARK  212  A    between atoms: _510  and  _511
REMARK  213  A    between atoms: _510  and  _513
REMARK  214  A    between atoms: _513  and  _514
REMARK  215  A    between atoms: _519  and  _521
REMARK  216  A    between atoms: _521  and  _522
REMARK  217  A    between atoms: _521  and  _524
REMARK  218  A    between atoms: _524  and  _525
REMARK  219  A    between atoms: _528  and  _530
REMARK  220  A    between atoms: _530  and  _531
REMARK  221  A    between atoms: _530  and  _533
REMARK  222  A    between atoms: _533  and  _534
REMARK  223  A    between atoms: _537  and  _539
REMARK  224  A    between atoms: _539  and  _540
REMARK  225  A    between atoms: _542  and  _544
REMARK  226  A    between atoms: _544  and  _545
REMARK  227  A    between atoms: _544  and  _547
REMARK  228  A    between atoms: _547  and  _548
REMARK  229  A    between atoms: _548  and  _549
REMARK  230  A    between atoms: _549  and  _550
REMARK  231  A    between atoms: _559  and  _561
REMARK  232  A    between atoms: _561  and  _562
REMARK  233  A    between atoms: _561  and  _564
REMARK  234  A    between atoms: _564  and  _565
REMARK                            x       y       z     vdW  Elec       q    Type
REMARK                         _______ _______ _______ _____ _____    ______ ____
ROOT
ATOM      1  NE  ARG A   1      20.452   6.710   7.945  0.00  0.00    -0.265 N 
ATOM      2  CZ  ARG A   1      19.577   7.240   8.785  0.00  0.00    +0.342 C 
ATOM      3  NH2 ARG A   1      19.818   7.168  10.089  0.00  0.00    -0.292 N 
ATOM      4 HH21 ARG A   1      19.143   7.578  10.766  0.00  0.00    +0.255 HD
ATOM      5 HH22 ARG A   1      20.681   6.702  10.433  0.00  0.00    +0.255 HD
ATOM      6  NH1 ARG A   1      18.498   7.831   8.327  0.00  0.00    -0.292 N 
ATOM      7 HH11 ARG A   1      17.812   8.247   8.989  0.00  0.00    +0.255 HD
ATOM      8 HH12 ARG A   1      18.329   7.884   7.302  0.00  0.00    +0.255 HD
ATOM      9  HE  ARG A   1      20.260   6.767   6.924  0.00  0.00    +0.259 HD
ENDROOT
BRANCH   1  10
ATOM     10  CD  ARG A   1      21.675   6.049   8.391  0.00  0.00    +0.174 C 
BRANCH  10  11
ATOM     11  CG  ARG A   1      22.396   5.429   7.205  0.00  0.00    +0.045 C 
BRANCH  11  12
ATOM     12  CB  ARG A   1      23.718   4.816   7.618  0.00  0.00    +0.029 C 
BRANCH  12  13
ATOM     13  CA  ARG A   1      24.473   4.147   6.456  0.00  0.00    +0.133 C 
BRANCH  13  14
ATOM     14  N   ARG A   1      23.774   2.957   5.984  0.00  0.00    -0.239 NA
ATOM     15  H   ARG A   1      22.866   2.685   6.411  0.00  0.00    +0.142 HD
ENDBRANCH  13  14
BRANCH  13  16
ATOM     16  C   ARG A   1      25.886   3.796   6.910  0.00  0.00    +0.224 C 
ATOM     17  O   ARG A   1      26.059   2.833   7.641  0.00  0.00    -0.287 OA
ENDBRANCH  13  16
ENDBRANCH  12  13
ENDBRANCH  11  12
ENDBRANCH  10  11
ENDBRANCH   1  10
TORSDOF 6
REMARK  Name = ../refined-set-2016/1sdv/1sdv_pocket.pdb
REMARK  234 active torsions:
REMARK  status: ('A' for Active; 'I' for Inactive)
REMARK    1  A    between atoms: _1  and  _3
REMARK    2  A    between atoms: _3  and  _4
REMARK    3  A    between atoms: _3  and  _6
REMARK    4  A    between atoms: _6  and  _7
REMARK    5  A    between atoms: _7  and  _8
REMARK    6  A    between atoms: _8  and  _9
REMARK    7  A    between atoms: _18  and  _20
REMARK    8  A    between atoms: _20  and  _21
REMARK    9  A    between atoms: _20  and  _23
REMARK   10  A    between atoms: _23  and  _24
REMARK   11  A    between atoms: _27  and  _29
REMARK   12  A    between atoms: _29  and  _30
REMARK   13  A    between atoms: _29  and  _32
REMARK   14  A    between atoms: _32  and  _33
REMARK   15  A    between atoms: _36  and  _38
REMARK   16  A    between atoms: _38  and  _39
REMARK   17  A    between atoms: _38  and  _41
REMARK   18  A    between atoms: _41  and  _42
REMARK   19  A    between atoms: _45  and  _47
REMARK   20  A    between atoms: _47  and  _48
REMARK   21  A    between atoms: _47  and  _50
REMARK   22  A    between atoms: _50  and  _51
REMARK   23  A    between atoms: _54  and  _56
REMARK   24  A    between atoms: _56  and  _57
REMARK   25  A    between atoms: _56  and  _59
REMARK   26  A    between atoms: _59  and  _60
REMARK   27  A    between atoms: _63  and  _65
REMARK   28  A    between atoms: _65  and  _66
REMARK   29  A    between atoms: _68  and  _70
REMARK   30  A    between atoms: _70  and  _71
REMARK   31  A    between atoms: _74  and  _76
REMARK   32  A    between atoms: _76  and  _77
REMARK   33  A    between atoms: _76  and  _79
REMARK   34  A    between atoms: _79  and  _80
REMARK   35  A    between atoms: _83  and  _85
REMARK   36  A    between atoms: _85  and  _86
REMARK   37  A    between atoms: _85  and  _88
REMARK   38  A    between atoms: _88  and  _89
REMARK   39  A    between atoms: _92  and  _94
REMARK   40  A    between atoms: _94  and  _95
REMARK   41  A    between atoms: _94  and  _97
REMARK   42  A    between atoms: _97  and  _98
REMARK   43  A    between atoms: _101  and  _103
REMARK   44  A    between atoms: _103  and  _104
REMARK   45  A    between atoms: _103  and  _106
REMARK   46  A    between atoms: _109  and  _111
REMARK   47  A    between atoms: _111  and  _112
REMARK   48  A    between atoms: _111  and  _114
REMARK   49  A    between atoms: _114  and  _115
REMARK   50  A    between atoms: _115  and  _116
REMARK   51  A    between atoms: _116  and  _117
REMARK   52  A    between atoms: _117  and  _118
REMARK   53  A    between atoms: _122  and  _124
REMARK   54  A    between atoms: _124  and  _125
REMARK   55  A    between atoms: _124  and  _127
REMARK   56  A    between atoms: _127  and  _128
REMARK   57  A    between atoms: _128  and  _129
REMARK   58  A    between atoms: _131  and  _133
REMARK   59  A    between atoms: _133  and  _134
REMARK   60  A    between atoms: _133  and  _136
REMARK   61  A    between atoms: _136  and  _137
REMARK   62  A    between atoms: _140  and  _142
REMARK   63  A    between atoms: _142  and  _143
REMARK   64  A    between atoms: _145  and  _147
REMARK   65  A    between atoms: _147  and  _148
REMARK   66  A    between atoms: _150  and  _152
REMARK   67  A    between atoms: _152  and  _153
REMARK   68  A    between atoms: _152  and  _155
REMARK   69  A    between atoms: _155  and  _156
REMARK   70  A    between atoms: _159  and  _161
REMARK   71  A    between atoms: _161  and  _162
REMARK   72  A    between atoms: _164  and  _166
REMARK   73  A    between atoms: _166  and  _167
REMARK   74  A    between atoms: _169  and  _171
REMARK   75  A    between atoms: _171  and  _172
REMARK   76  A    between atoms: _171  and  _174
REMARK   77  A    between atoms: _174  and  _175
REMARK   78  A    between atoms: _181  and  _183
REMARK   79  A    between atoms: _183  and  _184
REMARK   80  A    between atoms: _183  and  _186
REMARK   81  A    between atoms: _186  and  _187
REMARK   82  A    between atoms: _190  and  _192
REMARK   83  A    between atoms: _192  and  _193
REMARK   84  A    between atoms: _192  and  _195
REMARK   85  A    between atoms: _198  and  _200
REMARK   86  A    between atoms: _200  and  _201
REMARK   87  A    between atoms: _200  and  _203
REMARK   88  A    between atoms: _203  and  _204
REMARK   89  A    between atoms: _207  and  _209
REMARK   90  A    between atoms: _209  and  _210
REMARK   91  A    between atoms: _209  and  _212
REMARK   92  A    between atoms: _212  and  _213
REMARK   93  A    between atoms: _217  and  _218
REMARK   94  A    between atoms: _223  and  _225
REMARK   95  A    between atoms: _225  and  _226
REMARK   96  A    between atoms: _229  and  _231
REMARK   97  A    between atoms: _231  and  _232
REMARK   98  A    between atoms: _231  and  _234
REMARK   99  A    between atoms: _234  and  _235
REMARK  100  A    between atoms: _240  and  _242
REMARK  101  A    between atoms: _242  and  _243
REMARK  102  A    between atoms: _242  and  _245
REMARK  103  A    between atoms: _245  and  _246
REMARK  104  A    between atoms: _249  and  _251
REMARK  105  A    between atoms: _251  and  _252
REMARK  106  A    between atoms: _251  and  _254
REMARK  107  A    between atoms: _254  and  _255
REMARK  108  A    between atoms: _258  and  _260
REMARK  109  A    between atoms: _260  and  _261
REMARK  110  A    between atoms: _263  and  _265
REMARK  111  A    between atoms: _265  and  _266
REMARK  112  A    between atoms: _265  and  _268
REMARK  113  A    between atoms: _268  and  _269
REMARK  114  A    between atoms: _269  and  _270
REMARK  115  A    between atoms: _270  and  _271
REMARK  116  A    between atoms: _280  and  _282
REMARK  117  A    between atoms: _282  and  _283
REMARK  118  A    between atoms: _282  and  _285
REMARK  119  A    between atoms: _285  and  _286
REMARK  120  A    between atoms: _286  and  _287
REMARK  121  A    between atoms: _287  and  _288
REMARK  122  A    between atoms: _297  and  _299
REMARK  123  A    between atoms: _299  and  _300
REMARK  124  A    between atoms: _299  and  _302
REMARK  125  A    between atoms: _302  and  _303
REMARK  126  A    between atoms: _306  and  _308
REMARK  127  A    between atoms: _308  and  _309
REMARK  128  A    between atoms: _308  and  _311
REMARK  129  A    between atoms: _311  and  _312
REMARK  130  A    between atoms: _315  and  _317
REMARK  131  A    between atoms: _317  and  _318
REMARK  132  A    between atoms: _317  and  _320
REMARK  133  A    between atoms: _320  and  _321
REMARK  134  A    between atoms: _324  and  _326
REMARK  135  A    between atoms: _326  and  _327
REMARK  136  A    between atoms: _326  and  _329
REMARK  137  A    between atoms: _329  and  _330
REMARK  138  A    between atoms: _333  and  _335
REMARK  139  A    between atoms: _335  and  _336
REMARK  140  A    between atoms: _338  and  _340
REMARK  141  A    between atoms: _340  and  _341
REMARK  142  A    between atoms: _344  and  _346
REMARK  143  A    between atoms: _346  and  _347
REMARK  144  A    between atoms: _346  and  _349
REMARK  145  A    between atoms: _349  and  _350
REMARK  146  A    between atoms: _353  and  _355
REMARK  147  A    between atoms: _355  and  _356
REMARK  148  A    between atoms: _355  and  _358
REMARK  149  A    between atoms: _358  and  _359
REMARK  150  A    between atoms: _362  and  _364
REMARK  151  A    between atoms: _364  and  _365
REMARK  152  A    between atoms: _364  and  _367
REMARK  153  A    between atoms: _367  and  _368
REMARK  154  A    between atoms: _371  and  _373
REMARK  155  A    between atoms: _373  and  _374
REMARK  156  A    between atoms: _373  and  _376
REMARK  157  A    between atoms: _379  and  _381
REMARK  158  A    between atoms: _381  and  _382
REMARK  159  A    between atoms: _381  and  _384
REMARK  160  A    between atoms: _384  and  _385
REMARK  161  A    between atoms: _388  and  _390
REMARK  162  A    between atoms: _390  and  _391
REMARK  163  A    between atoms: _390  and  _393
REMARK  164  A    between atoms: _393  and  _394
REMARK  165  A    between atoms: _394  and  _395
REMARK  166  A    between atoms: _395  and  _396
REMARK  167  A    between atoms: _396  and  _397
REMARK  168  A    between atoms: _401  and  _403
REMARK  169  A    between atoms: _403  and  _404
REMARK  170  A    between atoms: _403  and  _406
REMARK  171  A    between atoms: _406  and  _407
REMARK  172  A    between atoms: _407  and  _408
REMARK  173  A    between atoms: _410  and  _412
REMARK  174  A    between atoms: _412  and  _413
REMARK  175  A    between atoms: _412  and  _415
REMARK  176  A    between atoms: _415  and  _416
REMARK  177  A    between atoms: _419  and  _421
REMARK  178  A    between atoms: _421  and  _422
REMARK  179  A    between atoms: _424  and  _426
REMARK  180  A    between atoms: _426  and  _427
REMARK  181  A    between atoms: _429  and  _431
REMARK  182  A    between atoms: _431  and  _432
REMARK  183  A    between atoms: _431  and  _434
REMARK  184  A    between atoms: _434  and  _435
REMARK  185  A    between atoms: _438  and  _440
REMARK  186  A    between atoms: _440  and  _441
REMARK  187  A    between atoms: _443  and  _445
REMARK  188  A    between atoms: _445  and  _446
REMARK  189  A    between atoms: _448  and  _450
REMARK  190  A    between atoms: _450  and  _451
REMARK  191  A    between atoms: _450  and  _453
REMARK  192  A    between atoms: _453  and  _454
REMARK  193  A    between atoms: _460  and  _462
REMARK  194  A    between atoms: _462  and  _463
REMARK  195  A    between atoms: _462  and  _465
REMARK  196  A    between atoms: _465  and  _466
REMARK  197  A    between atoms: _469  and  _471
REMARK  198  A    between atoms: _471  and  _472
REMARK  199  A    between atoms: _471  and  _474
REMARK  200  A    between atoms: _477  and  _479
REMARK  201  A    between atoms: _479  and  _480
REMARK  202  A    between atoms: _479  and  _482
REMARK  203  A    between atoms: _482  and  _483
REMARK  204  A    between atoms: _486  and  _488
REMARK  205  A    between atoms: _488  and  _489
REMARK  206  A    between atoms: _488  and  _491
REMARK  207  A    between atoms: _491  and  _492
REMARK  208  A    between atoms: _496  and  _497
REMARK  209  A    between atoms: _502  and  _504
REMARK  210  A    between atoms: _504  and  _505
REMARK  211  A    between atoms: _508  and  _510
REMARK  212  A    between atoms: _510  and  _511
REMARK  213  A    between atoms: _510  and  _513
REMARK  214  A    between atoms: _513  and  _514
REMARK  215  A    between atoms: _519  and  _521
REMARK  216  A    between atoms: _521  and  _522
REMARK  217  A    between atoms: _521  and  _524
REMARK  218  A    between atoms: _524  and  _525
REMARK  219  A    between atoms: _528  and  _530
REMARK  220  A    between atoms: _530  and  _531
REMARK  221  A    between atoms: _530  and  _533
REMARK  222  A    between atoms: _533  and  _534
REMARK  223  A    between atoms: _537  and  _539
REMARK  224  A    between atoms: _539  and  _540
REMARK  225  A    between atoms: _542  and  _544
REMARK  226  A    between atoms: _544  and  _545
REMARK  227  A    between atoms: _544  and  _547
REMARK  228  A    between atoms: _547  and  _548
REMARK  229  A    between atoms: _548  and  _549
REMARK  230  A    between atoms: _549  and  _550
REMARK  231  A    between atoms: _559  and  _561
REMARK  232  A    between atoms: _561  and  _562
REMARK  233  A    between atoms: _561  and  _564
REMARK  234  A    between atoms: _564  and  _565
REMARK                            x       y       z     vdW  Elec       q    Type
REMARK                         _______ _______ _______ _____ _____    ______ ____
ROOT
ATOM      1  CA  LEU A   1      28.368   4.292  10.664  0.00  0.00    +0.133 C 
ENDROOT
BRANCH   1   2
ATOM      2  N   LEU A   1      28.188   3.977   9.251  0.00  0.00    -0.239 NA
ATOM      3  H   LEU A   1      27.728   3.084   8.982  0.00  0.00    +0.142 HD
ENDBRANCH   1   2
BRANCH   1   4
ATOM      4  C   LEU A   1      29.630   3.664  11.208  0.00  0.00    +0.224 C 
ATOM      5  O   LEU A   1      29.923   2.494  10.903  0.00  0.00    -0.287 OA
ENDBRANCH   1   4
BRANCH   1   6
ATOM      6  CB  LEU A   1      27.189   3.692  11.436  0.00  0.00    +0.025 C 
BRANCH   6   7
ATOM      7  CG  LEU A   1      25.842   4.323  11.091  0.00  0.00    +0.002 C 
ATOM      8  CD2 LEU A   1      24.725   3.619  11.866  0.00  0.00    +0.000 C 
ATOM      9  CD1 LEU A   1      25.850   5.817  11.380  0.00  0.00    +0.000 C 
ENDBRANCH   6   7
ENDBRANCH   1   6
TORSDOF 4
REMARK  Name = ../refined-set-2016/1sdv/1sdv_pocket.pdb
REMARK  234 active torsions:
REMARK  status: ('A' for Active; 'I' for Inactive)
REMARK    1  A    between atoms: _1  and  _3
REMARK    2  A    between atoms: _3  and  _4
REMARK    3  A    between atoms: _3  and  _6
REMARK    4  A    between atoms: _6  and  _7
REMARK    5  A    between atoms: _7  and  _8
REMARK    6  A    between atoms: _8  and  _9
REMARK    7  A    between atoms: _18  and  _20
REMARK    8  A    between atoms: _20  and  _21
REMARK    9  A    between atoms: _20  and  _23
REMARK   10  A    between atoms: _23  and  _24
REMARK   11  A    between atoms: _27  and  _29
REMARK   12  A    between atoms: _29  and  _30
REMARK   13  A    between atoms: _29  and  _32
REMARK   14  A    between atoms: _32  and  _33
REMARK   15  A    between atoms: _36  and  _38
REMARK   16  A    between atoms: _38  and  _39
REMARK   17  A    between atoms: _38  and  _41
REMARK   18  A    between atoms: _41  and  _42
REMARK   19  A    between atoms: _45  and  _47
REMARK   20  A    between atoms: _47  and  _48
REMARK   21  A    between atoms: _47  and  _50
REMARK   22  A    between atoms: _50  and  _51
REMARK   23  A    between atoms: _54  and  _56
REMARK   24  A    between atoms: _56  and  _57
REMARK   25  A    between atoms: _56  and  _59
REMARK   26  A    between atoms: _59  and  _60
REMARK   27  A    between atoms: _63  and  _65
REMARK   28  A    between atoms: _65  and  _66
REMARK   29  A    between atoms: _68  and  _70
REMARK   30  A    between atoms: _70  and  _71
REMARK   31  A    between atoms: _74  and  _76
REMARK   32  A    between atoms: _76  and  _77
REMARK   33  A    between atoms: _76  and  _79
REMARK   34  A    between atoms: _79  and  _80
REMARK   35  A    between atoms: _83  and  _85
REMARK   36  A    between atoms: _85  and  _86
REMARK   37  A    between atoms: _85  and  _88
REMARK   38  A    between atoms: _88  and  _89
REMARK   39  A    between atoms: _92  and  _94
REMARK   40  A    between atoms: _94  and  _95
REMARK   41  A    between atoms: _94  and  _97
REMARK   42  A    between atoms: _97  and  _98
REMARK   43  A    between atoms: _101  and  _103
REMARK   44  A    between atoms: _103  and  _104
REMARK   45  A    between atoms: _103  and  _106
REMARK   46  A    between atoms: _109  and  _111
REMARK   47  A    between atoms: _111  and  _112
REMARK   48  A    between atoms: _111  and  _114
REMARK   49  A    between atoms: _114  and  _115
REMARK   50  A    between atoms: _115  and  _116
REMARK   51  A    between atoms: _116  and  _117
REMARK   52  A    between atoms: _117  and  _118
REMARK   53  A    between atoms: _122  and  _124
REMARK   54  A    between atoms: _124  and  _125
REMARK   55  A    between atoms: _124  and  _127
REMARK   56  A    between atoms: _127  and  _128
REMARK   57  A    between atoms: _128  and  _129
REMARK   58  A    between atoms: _131  and  _133
REMARK   59  A    between atoms: _133  and  _134
REMARK   60  A    between atoms: _133  and  _136
REMARK   61  A    between atoms: _136  and  _137
REMARK   62  A    between atoms: _140  and  _142
REMARK   63  A    between atoms: _142  and  _143
REMARK   64  A    between atoms: _145  and  _147
REMARK   65  A    between atoms: _147  and  _148
REMARK   66  A    between atoms: _150  and  _152
REMARK   67  A    between atoms: _152  and  _153
REMARK   68  A    between atoms: _152  and  _155
REMARK   69  A    between atoms: _155  and  _156
REMARK   70  A    between atoms: _159  and  _161
REMARK   71  A    between atoms: _161  and  _162
REMARK   72  A    between atoms: _164  and  _166
REMARK   73  A    between atoms: _166  and  _167
REMARK   74  A    between atoms: _169  and  _171
REMARK   75  A    between atoms: _171  and  _172
REMARK   76  A    between atoms: _171  and  _174
REMARK   77  A    between atoms: _174  and  _175
REMARK   78  A    between atoms: _181  and  _183
REMARK   79  A    between atoms: _183  and  _184
REMARK   80  A    between atoms: _183  and  _186
REMARK   81  A    between atoms: _186  and  _187
REMARK   82  A    between atoms: _190  and  _192
REMARK   83  A    between atoms: _192  and  _193
REMARK   84  A    between atoms: _192  and  _195
REMARK   85  A    between atoms: _198  and  _200
REMARK   86  A    between atoms: _200  and  _201
REMARK   87  A    between atoms: _200  and  _203
REMARK   88  A    between atoms: _203  and  _204
REMARK   89  A    between atoms: _207  and  _209
REMARK   90  A    between atoms: _209  and  _210
REMARK   91  A    between atoms: _209  and  _212
REMARK   92  A    between atoms: _212  and  _213
REMARK   93  A    between atoms: _217  and  _218
REMARK   94  A    between atoms: _223  and  _225
REMARK   95  A    between atoms: _225  and  _226
REMARK   96  A    between atoms: _229  and  _231
REMARK   97  A    between atoms: _231  and  _232
REMARK   98  A    between atoms: _231  and  _234
REMARK   99  A    between atoms: _234  and  _235
REMARK  100  A    between atoms: _240  and  _242
REMARK  101  A    between atoms: _242  and  _243
REMARK  102  A    between atoms: _242  and  _245
REMARK  103  A    between atoms: _245  and  _246
REMARK  104  A    between atoms: _249  and  _251
REMARK  105  A    between atoms: _251  and  _252
REMARK  106  A    between atoms: _251  and  _254
REMARK  107  A    between atoms: _254  and  _255
REMARK  108  A    between atoms: _258  and  _260
REMARK  109  A    between atoms: _260  and  _261
REMARK  110  A    between atoms: _263  and  _265
REMARK  111  A    between atoms: _265  and  _266
REMARK  112  A    between atoms: _265  and  _268
REMARK  113  A    between atoms: _268  and  _269
REMARK  114  A    between atoms: _269  and  _270
REMARK  115  A    between atoms: _270  and  _271
REMARK  116  A    between atoms: _280  and  _282
REMARK  117  A    between atoms: _282  and  _283
REMARK  118  A    between atoms: _282  and  _285
REMARK  119  A    between atoms: _285  and  _286
REMARK  120  A    between atoms: _286  and  _287
REMARK  121  A    between atoms: _287  and  _288
REMARK  122  A    between atoms: _297  and  _299
REMARK  123  A    between atoms: _299  and  _300
REMARK  124  A    between atoms: _299  and  _302
REMARK  125  A    between atoms: _302  and  _303
REMARK  126  A    between atoms: _306  and  _308
REMARK  127  A    between atoms: _308  and  _309
REMARK  128  A    between atoms: _308  and  _311
REMARK  129  A    between atoms: _311  and  _312
REMARK  130  A    between atoms: _315  and  _317
REMARK  131  A    between atoms: _317  and  _318
REMARK  132  A    between atoms: _317  and  _320
REMARK  133  A    between atoms: _320  and  _321
REMARK  134  A    between atoms: _324  and  _326
REMARK  135  A    between atoms: _326  and  _327
REMARK  136  A    between atoms: _326  and  _329
REMARK  137  A    between atoms: _329  and  _330
REMARK  138  A    between atoms: _333  and  _335
REMARK  139  A    between atoms: _335  and  _336
REMARK  140  A    between atoms: _338  and  _340
REMARK  141  A    between atoms: _340  and  _341
REMARK  142  A    between atoms: _344  and  _346
REMARK  143  A    between atoms: _346  and  _347
REMARK  144  A    between atoms: _346  and  _349
REMARK  145  A    between atoms: _349  and  _350
REMARK  146  A    between atoms: _353  and  _355
REMARK  147  A    between atoms: _355  and  _356
REMARK  148  A    between atoms: _355  and  _358
REMARK  149  A    between atoms: _358  and  _359
REMARK  150  A    between atoms: _362  and  _364
REMARK  151  A    between atoms: _364  and  _365
REMARK  152  A    between atoms: _364  and  _367
REMARK  153  A    between atoms: _367  and  _368
REMARK  154  A    between atoms: _371  and  _373
REMARK  155  A    between atoms: _373  and  _374
REMARK  156  A    between atoms: _373  and  _376
REMARK  157  A    between atoms: _379  and  _381
REMARK  158  A    between atoms: _381  and  _382
REMARK  159  A    between atoms: _381  and  _384
REMARK  160  A    between atoms: _384  and  _385
REMARK  161  A    between atoms: _388  and  _390
REMARK  162  A    between atoms: _390  and  _391
REMARK  163  A    between atoms: _390  and  _393
REMARK  164  A    between atoms: _393  and  _394
REMARK  165  A    between atoms: _394  and  _395
REMARK  166  A    between atoms: _395  and  _396
REMARK  167  A    between atoms: _396  and  _397
REMARK  168  A    between atoms: _401  and  _403
REMARK  169  A    between atoms: _403  and  _404
REMARK  170  A    between atoms: _403  and  _406
REMARK  171  A    between atoms: _406  and  _407
REMARK  172  A    between atoms: _407  and  _408
REMARK  173  A    between atoms: _410  and  _412
REMARK  174  A    between atoms: _412  and  _413
REMARK  175  A    between atoms: _412  and  _415
REMARK  176  A    between atoms: _415  and  _416
REMARK  177  A    between atoms: _419  and  _421
REMARK  178  A    between atoms: _421  and  _422
REMARK  179  A    between atoms: _424  and  _426
REMARK  180  A    between atoms: _426  and  _427
REMARK  181  A    between atoms: _429  and  _431
REMARK  182  A    between atoms: _431  and  _432
REMARK  183  A    between atoms: _431  and  _434
REMARK  184  A    between atoms: _434  and  _435
REMARK  185  A    between atoms: _438  and  _440
REMARK  186  A    between atoms: _440  and  _441
REMARK  187  A    between atoms: _443  and  _445
REMARK  188  A    between atoms: _445  and  _446
REMARK  189  A    between atoms: _448  and  _450
REMARK  190  A    between atoms: _450  and  _451
REMARK  191  A    between atoms: _450  and  _453
REMARK  192  A    between atoms: _453  and  _454
REMARK  193  A    between atoms: _460  and  _462
REMARK  194  A    between atoms: _462  and  _463
REMARK  195  A    between atoms: _462  and  _465
REMARK  196  A    between atoms: _465  and  _466
REMARK  197  A    between atoms: _469  and  _471
REMARK  198  A    between atoms: _471  and  _472
REMARK  199  A    between atoms: _471  and  _474
REMARK  200  A    between atoms: _477  and  _479
REMARK  201  A    between atoms: _479  and  _480
REMARK  202  A    between atoms: _479  and  _482
REMARK  203  A    between atoms: _482  and  _483
REMARK  204  A    between atoms: _486  and  _488
REMARK  205  A    between atoms: _488  and  _489
REMARK  206  A    between atoms: _488  and  _491
REMARK  207  A    between atoms: _491  and  _492
REMARK  208  A    between atoms: _496  and  _497
REMARK  209  A    between atoms: _502  and  _504
REMARK  210  A    between atoms: _504  and  _505
REMARK  211  A    between atoms: _508  and  _510
REMARK  212  A    between atoms: _510  and  _511
REMARK  213  A    between atoms: _510  and  _513
REMARK  214  A    between atoms: _513  and  _514
REMARK  215  A    between atoms: _519  and  _521
REMARK  216  A    between atoms: _521  and  _522
REMARK  217  A    between atoms: _521  and  _524
REMARK  218  A    between atoms: _524  and  _525
REMARK  219  A    between atoms: _528  and  _530
REMARK  220  A    between atoms: _530  and  _531
REMARK  221  A    between atoms: _530  and  _533
REMARK  222  A    between atoms: _533  and  _534
REMARK  223  A    between atoms: _537  and  _539
REMARK  224  A    between atoms: _539  and  _540
REMARK  225  A    between atoms: _542  and  _544
REMARK  226  A    between atoms: _544  and  _545
REMARK  227  A    between atoms: _544  and  _547
REMARK  228  A    between atoms: _547  and  _548
REMARK  229  A    between atoms: _548  and  _549
REMARK  230  A    between atoms: _549  and  _550
REMARK  231  A    between atoms: _559  and  _561
REMARK  232  A    between atoms: _561  and  _562
REMARK  233  A    between atoms: _561  and  _564
REMARK  234  A    between atoms: _564  and  _565
REMARK                            x       y       z     vdW  Elec       q    Type
REMARK                         _______ _______ _______ _____ _____    ______ ____
ROOT
ATOM      1  C   GLY A   5      28.116  17.103   3.323  0.00  0.00    +0.243 C 
ATOM      2  N   ALA A   6      28.668  16.777   4.475  0.00  0.00    -0.297 N 
ATOM      3  H   ALA A   6      29.073  15.825   4.579  0.00  0.00    +0.150 HD
ATOM      4  O   GLY A   5      27.649  18.212   3.086  0.00  0.00    -0.273 OA
ENDROOT
BRANCH   2   5
ATOM      5  CA  ALA A   6      28.738  17.696   5.617  0.00  0.00    +0.149 C 
ATOM      6  CB  ALA A   6      28.537  16.903   6.889  0.00  0.00    +0.031 C 
BRANCH   5   7
ATOM      7  C   ALA A   6      30.076  18.426   5.634  0.00  0.00    +0.241 C 
ATOM      8  N   ASP A   7      30.006  19.750   5.664  0.00  0.00    -0.297 N 
ATOM      9  H   ASP A   7      29.083  20.228   5.642  0.00  0.00    +0.150 HD
ATOM     10  O   ALA A   6      31.114  17.783   5.642  0.00  0.00    -0.273 OA
BRANCH   8  11
ATOM     11  CA  ASP A   7      31.230  20.524   5.728  0.00  0.00    +0.160 C 
BRANCH  11  12
ATOM     12  C   ASP A   7      31.946  20.342   7.077  0.00  0.00    +0.241 C 
ATOM     13  N   ASP A   8      31.127  20.189   8.126  0.00  0.00    -0.297 N 
ATOM     14  H   ASP A   8      30.120  20.036   7.914  0.00  0.00    +0.150 HD
ATOM     15  O   ASP A   7      33.171  20.333   7.163  0.00  0.00    -0.273 OA
BRANCH  13  16
ATOM     16  CA  ASP A   8      31.499  20.215   9.518  0.00  0.00    +0.160 C 
BRANCH  16  17
ATOM     17  C   ASP A   8      31.118  18.928  10.240  0.00  0.00    +0.241 C 
ATOM     18  N   THR A   9      31.715  18.727  11.397  0.00  0.00    -0.295 N 
ATOM     19  H   THR A   9      32.425  19.429  11.689  0.00  0.00    +0.150 HD
ATOM     20  O   ASP A   8      30.287  18.148   9.771  0.00  0.00    -0.273 OA
BRANCH  18  21
ATOM     21  CA  THR A   9      31.473  17.608  12.312  0.00  0.00    +0.176 C 
BRANCH  21  22
ATOM     22  C   THR A   9      30.551  18.084  13.427  0.00  0.00    +0.243 C 
ATOM     23  O   THR A   9      30.860  19.089  14.061  0.00  0.00    -0.273 OA
ATOM     24  N   VAL A  10      29.449  17.372  13.612  0.00  0.00    -0.298 N 
ATOM     25  H   VAL A  10      29.303  16.500  13.064  0.00  0.00    +0.150 HD
BRANCH  24  26
ATOM     26  CA  VAL A  10      28.433  17.799  14.580  0.00  0.00    +0.137 C 
BRANCH  26  27
ATOM     27  CB  VAL A  10      27.235  18.457  13.882  0.00  0.00    +0.026 C 
ATOM     28  CG2 VAL A  10      26.273  18.968  14.948  0.00  0.00    +0.002 C 
ATOM     29  CG1 VAL A  10      26.543  17.610  12.872  0.00  0.00    +0.002 C 
ENDBRANCH  26  27
BRANCH  26  30
ATOM     30  C   VAL A  10      28.028  16.581  15.396  0.00  0.00    +0.227 C 
ATOM     31  O   VAL A  10      27.688  15.539  14.874  0.00  0.00    -0.286 OA
ENDBRANCH  26  30
ENDBRANCH  24  26
ENDBRANCH  21  22
BRANCH  21  32
ATOM     32  CB  THR A   9      32.830  17.100  12.822  0.00  0.00    +0.137 C 
ATOM     33  CG2 THR A   9      32.617  16.066  13.912  0.00  0.00    +0.034 C 
BRANCH  32  34
ATOM     34  OG1 THR A   9      33.531  16.507  11.733  0.00  0.00    -0.382 OA
ATOM     35  HG1 THR A   9      33.669  17.183  11.023  0.00  0.00    +0.210 HD
ENDBRANCH  32  34
ENDBRANCH  21  32
ENDBRANCH  18  21
ENDBRANCH  16  17
BRANCH  16  36
ATOM     36  CB  ASP A   8      30.804  21.394  10.229  0.00  0.00    +0.143 C 
BRANCH  36  37
ATOM     37  CG  ASP A   8      31.002  22.756   9.621  0.00  0.00    +0.367 C 
ATOM     38  OD2 ASP A   8      30.029  23.526   9.621  0.00  0.00    -0.246 OA
ATOM     39  OD1 ASP A   8      32.121  23.010   9.162  0.00  0.00    -0.246 OA
ENDBRANCH  36  37
ENDBRANCH  16  36
ENDBRANCH  13  16
ENDBRANCH  11  12
BRANCH  11  40
ATOM     40  CB  ASP A   7      30.971  22.001   5.511  0.00  0.00    +0.143 C 
BRANCH  40  41
ATOM     41  CG  ASP A   7      30.469  22.392   4.147  0.00  0.00    +0.367 C 
ATOM     42  OD2 ASP A   7      29.900  23.504   4.158  0.00  0.00    -0.246 OA
ATOM     43  OD1 ASP A   7      30.623  21.647   3.169  0.00  0.00    -0.246 OA
ENDBRANCH  40  41
ENDBRANCH  11  40
ENDBRANCH   8  11
ENDBRANCH   5   7
ENDBRANCH   2   5
BRANCH   1  44
ATOM     44  CA  GLY A   5      28.032  16.057   2.225  0.00  0.00    +0.176 C 
BRANCH  44  46
ATOM     45  C   THR A   4      30.090  14.807   2.271  0.00  0.00    +0.243 C 
ATOM     46  N   GLY A   5      28.789  14.850   2.512  0.00  0.00    -0.295 N 
ATOM     47  H   GLY A   5      28.307  14.018   2.908  0.00  0.00    +0.150 HD
ATOM     48  O   THR A   4      30.733  15.750   1.807  0.00  0.00    -0.273 OA
BRANCH  45  49
ATOM     49  CA  THR A   4      30.860  13.538   2.624  0.00  0.00    +0.176 C 
BRANCH  49  52
ATOM     50  C   ASP A   3      29.978  13.147   4.849  0.00  0.00    +0.241 C 
ATOM     51  O   ASP A   3      30.313  14.253   5.236  0.00  0.00    -0.273 OA
ATOM     52  N   THR A   4      30.121  12.715   3.571  0.00  0.00    -0.295 N 
ATOM     53  H   THR A   4      29.708  11.808   3.272  0.00  0.00    +0.150 HD
BRANCH  50  54
ATOM     54  CA  ASP A   3      29.270  12.165   5.756  0.00  0.00    +0.160 C 
BRANCH  54  56
ATOM     55  C   LEU A   2      30.110  10.027   6.599  0.00  0.00    +0.241 C 
ATOM     56  N   ASP A   3      30.157  11.352   6.585  0.00  0.00    -0.297 N 
ATOM     57  H   ASP A   3      30.854  11.832   7.189  0.00  0.00    +0.150 HD
ATOM     58  O   LEU A   2      29.498   9.363   5.770  0.00  0.00    -0.273 OA
BRANCH  55  59
ATOM     59  CA  LEU A   2      30.822   9.316   7.744  0.00  0.00    +0.149 C 
BRANCH  59  62
ATOM     60  C   LEU A   1      29.139   9.446   9.485  0.00  0.00    +0.238 C 
ATOM     61  O   LEU A   1      29.366  10.654   9.682  0.00  0.00    -0.274 OA
ATOM     62  N   LEU A   2      29.818   8.708   8.626  0.00  0.00    -0.297 N 
ATOM     63  H   LEU A   2      29.640   7.685   8.574  0.00  0.00    +0.150 HD
BRANCH  60  64
ATOM     64  CA  LEU A   1      28.017   8.779  10.274  0.00  0.00    +0.145 C 
BRANCH  64  65
ATOM     65  N   LEU A   1      28.212   8.966  11.704  0.00  0.00    -0.238 NA
ATOM     66  H   LEU A   1      27.852   9.851  12.114  0.00  0.00    +0.142 HD
ENDBRANCH  64  65
BRANCH  64  67
ATOM     67  CB  LEU A   1      26.678   9.419   9.915  0.00  0.00    +0.026 C 
BRANCH  67  68
ATOM     68  CG  LEU A   1      26.164   9.392   8.497  0.00  0.00    +0.002 C 
ATOM     69  CD2 LEU A   1      24.849  10.178   8.407  0.00  0.00    +0.000 C 
ATOM     70  CD1 LEU A   1      25.932   7.964   8.073  0.00  0.00    +0.000 C 
ENDBRANCH  67  68
ENDBRANCH  64  67
ENDBRANCH  60  64
ENDBRANCH  59  62
BRANCH  59  71
ATOM     71  CB  LEU A   2      31.742   8.240   7.195  0.00  0.00    +0.029 C 
BRANCH  71  72
ATOM     72  CG  LEU A   2      32.490   7.387   8.249  0.00  0.00    +0.002 C 
ATOM     73  CD2 LEU A   2      33.347   8.259   9.150  0.00  0.00    +0.000 C 
ATOM     74  CD1 LEU A   2      33.292   6.314   7.538  0.00  0.00    +0.000 C 
ENDBRANCH  71  72
ENDBRANCH  59  71
ENDBRANCH  55  59
ENDBRANCH  54  56
BRANCH  54  75
ATOM     75  CB  ASP A   3      28.349  12.955   6.698  0.00  0.00    +0.143 C 
BRANCH  75  76
ATOM     76  CG  ASP A   3      27.205  13.603   5.972  0.00  0.00    +0.367 C 
ATOM     77  OD2 ASP A   3      26.253  14.053   6.640  0.00  0.00    -0.246 OA
ATOM     78  OD1 ASP A   3      27.244  13.623   4.725  0.00  0.00    -0.246 OA
ENDBRANCH  75  76
ENDBRANCH  54  75
ENDBRANCH  50  54
ENDBRANCH  49  52
BRANCH  49  79
ATOM     79  CB  THR A   4      31.160  12.752   1.339  0.00  0.00    +0.137 C 
ATOM     80  CG2 THR A   4      31.996  11.519   1.632  0.00  0.00    +0.034 C 
BRANCH  79  81
ATOM     81  OG1 THR A   4      29.919  12.328   0.724  0.00  0.00    -0.382 OA
ATOM     82  HG1 THR A   4      29.373  13.124   0.502  0.00  0.00    +0.210 HD
ENDBRANCH  79  81
ENDBRANCH  49  79
ENDBRANCH  45  49
ENDBRANCH  44  46
ENDBRANCH   1  44
TORSDOF 35
REMARK  Name = ../refined-set-2016/1sdv/1sdv_pocket.pdb
REMARK  234 active torsions:
REMARK  status: ('A' for Active; 'I' for Inactive)
REMARK    1  A    between atoms: _1  and  _3
REMARK    2  A    between atoms: _3  and  _4
REMARK    3  A    between atoms: _3  and  _6
REMARK    4  A    between atoms: _6  and  _7
REMARK    5  A    between atoms: _7  and  _8
REMARK    6  A    between atoms: _8  and  _9
REMARK    7  A    between atoms: _18  and  _20
REMARK    8  A    between atoms: _20  and  _21
REMARK    9  A    between atoms: _20  and  _23
REMARK   10  A    between atoms: _23  and  _24
REMARK   11  A    between atoms: _27  and  _29
REMARK   12  A    between atoms: _29  and  _30
REMARK   13  A    between atoms: _29  and  _32
REMARK   14  A    between atoms: _32  and  _33
REMARK   15  A    between atoms: _36  and  _38
REMARK   16  A    between atoms: _38  and  _39
REMARK   17  A    between atoms: _38  and  _41
REMARK   18  A    between atoms: _41  and  _42
REMARK   19  A    between atoms: _45  and  _47
REMARK   20  A    between atoms: _47  and  _48
REMARK   21  A    between atoms: _47  and  _50
REMARK   22  A    between atoms: _50  and  _51
REMARK   23  A    between atoms: _54  and  _56
REMARK   24  A    between atoms: _56  and  _57
REMARK   25  A    between atoms: _56  and  _59
REMARK   26  A    between atoms: _59  and  _60
REMARK   27  A    between atoms: _63  and  _65
REMARK   28  A    between atoms: _65  and  _66
REMARK   29  A    between atoms: _68  and  _70
REMARK   30  A    between atoms: _70  and  _71
REMARK   31  A    between atoms: _74  and  _76
REMARK   32  A    between atoms: _76  and  _77
REMARK   33  A    between atoms: _76  and  _79
REMARK   34  A    between atoms: _79  and  _80
REMARK   35  A    between atoms: _83  and  _85
REMARK   36  A    between atoms: _85  and  _86
REMARK   37  A    between atoms: _85  and  _88
REMARK   38  A    between atoms: _88  and  _89
REMARK   39  A    between atoms: _92  and  _94
REMARK   40  A    between atoms: _94  and  _95
REMARK   41  A    between atoms: _94  and  _97
REMARK   42  A    between atoms: _97  and  _98
REMARK   43  A    between atoms: _101  and  _103
REMARK   44  A    between atoms: _103  and  _104
REMARK   45  A    between atoms: _103  and  _106
REMARK   46  A    between atoms: _109  and  _111
REMARK   47  A    between atoms: _111  and  _112
REMARK   48  A    between atoms: _111  and  _114
REMARK   49  A    between atoms: _114  and  _115
REMARK   50  A    between atoms: _115  and  _116
REMARK   51  A    between atoms: _116  and  _117
REMARK   52  A    between atoms: _117  and  _118
REMARK   53  A    between atoms: _122  and  _124
REMARK   54  A    between atoms: _124  and  _125
REMARK   55  A    between atoms: _124  and  _127
REMARK   56  A    between atoms: _127  and  _128
REMARK   57  A    between atoms: _128  and  _129
REMARK   58  A    between atoms: _131  and  _133
REMARK   59  A    between atoms: _133  and  _134
REMARK   60  A    between atoms: _133  and  _136
REMARK   61  A    between atoms: _136  and  _137
REMARK   62  A    between atoms: _140  and  _142
REMARK   63  A    between atoms: _142  and  _143
REMARK   64  A    between atoms: _145  and  _147
REMARK   65  A    between atoms: _147  and  _148
REMARK   66  A    between atoms: _150  and  _152
REMARK   67  A    between atoms: _152  and  _153
REMARK   68  A    between atoms: _152  and  _155
REMARK   69  A    between atoms: _155  and  _156
REMARK   70  A    between atoms: _159  and  _161
REMARK   71  A    between atoms: _161  and  _162
REMARK   72  A    between atoms: _164  and  _166
REMARK   73  A    between atoms: _166  and  _167
REMARK   74  A    between atoms: _169  and  _171
REMARK   75  A    between atoms: _171  and  _172
REMARK   76  A    between atoms: _171  and  _174
REMARK   77  A    between atoms: _174  and  _175
REMARK   78  A    between atoms: _181  and  _183
REMARK   79  A    between atoms: _183  and  _184
REMARK   80  A    between atoms: _183  and  _186
REMARK   81  A    between atoms: _186  and  _187
REMARK   82  A    between atoms: _190  and  _192
REMARK   83  A    between atoms: _192  and  _193
REMARK   84  A    between atoms: _192  and  _195
REMARK   85  A    between atoms: _198  and  _200
REMARK   86  A    between atoms: _200  and  _201
REMARK   87  A    between atoms: _200  and  _203
REMARK   88  A    between atoms: _203  and  _204
REMARK   89  A    between atoms: _207  and  _209
REMARK   90  A    between atoms: _209  and  _210
REMARK   91  A    between atoms: _209  and  _212
REMARK   92  A    between atoms: _212  and  _213
REMARK   93  A    between atoms: _217  and  _218
REMARK   94  A    between atoms: _223  and  _225
REMARK   95  A    between atoms: _225  and  _226
REMARK   96  A    between atoms: _229  and  _231
REMARK   97  A    between atoms: _231  and  _232
REMARK   98  A    between atoms: _231  and  _234
REMARK   99  A    between atoms: _234  and  _235
REMARK  100  A    between atoms: _240  and  _242
REMARK  101  A    between atoms: _242  and  _243
REMARK  102  A    between atoms: _242  and  _245
REMARK  103  A    between atoms: _245  and  _246
REMARK  104  A    between atoms: _249  and  _251
REMARK  105  A    between atoms: _251  and  _252
REMARK  106  A    between atoms: _251  and  _254
REMARK  107  A    between atoms: _254  and  _255
REMARK  108  A    between atoms: _258  and  _260
REMARK  109  A    between atoms: _260  and  _261
REMARK  110  A    between atoms: _263  and  _265
REMARK  111  A    between atoms: _265  and  _266
REMARK  112  A    between atoms: _265  and  _268
REMARK  113  A    between atoms: _268  and  _269
REMARK  114  A    between atoms: _269  and  _270
REMARK  115  A    between atoms: _270  and  _271
REMARK  116  A    between atoms: _280  and  _282
REMARK  117  A    between atoms: _282  and  _283
REMARK  118  A    between atoms: _282  and  _285
REMARK  119  A    between atoms: _285  and  _286
REMARK  120  A    between atoms: _286  and  _287
REMARK  121  A    between atoms: _287  and  _288
REMARK  122  A    between atoms: _297  and  _299
REMARK  123  A    between atoms: _299  and  _300
REMARK  124  A    between atoms: _299  and  _302
REMARK  125  A    between atoms: _302  and  _303
REMARK  126  A    between atoms: _306  and  _308
REMARK  127  A    between atoms: _308  and  _309
REMARK  128  A    between atoms: _308  and  _311
REMARK  129  A    between atoms: _311  and  _312
REMARK  130  A    between atoms: _315  and  _317
REMARK  131  A    between atoms: _317  and  _318
REMARK  132  A    between atoms: _317  and  _320
REMARK  133  A    between atoms: _320  and  _321
REMARK  134  A    between atoms: _324  and  _326
REMARK  135  A    between atoms: _326  and  _327
REMARK  136  A    between atoms: _326  and  _329
REMARK  137  A    between atoms: _329  and  _330
REMARK  138  A    between atoms: _333  and  _335
REMARK  139  A    between atoms: _335  and  _336
REMARK  140  A    between atoms: _338  and  _340
REMARK  141  A    between atoms: _340  and  _341
REMARK  142  A    between atoms: _344  and  _346
REMARK  143  A    between atoms: _346  and  _347
REMARK  144  A    between atoms: _346  and  _349
REMARK  145  A    between atoms: _349  and  _350
REMARK  146  A    between atoms: _353  and  _355
REMARK  147  A    between atoms: _355  and  _356
REMARK  148  A    between atoms: _355  and  _358
REMARK  149  A    between atoms: _358  and  _359
REMARK  150  A    between atoms: _362  and  _364
REMARK  151  A    between atoms: _364  and  _365
REMARK  152  A    between atoms: _364  and  _367
REMARK  153  A    between atoms: _367  and  _368
REMARK  154  A    between atoms: _371  and  _373
REMARK  155  A    between atoms: _373  and  _374
REMARK  156  A    between atoms: _373  and  _376
REMARK  157  A    between atoms: _379  and  _381
REMARK  158  A    between atoms: _381  and  _382
REMARK  159  A    between atoms: _381  and  _384
REMARK  160  A    between atoms: _384  and  _385
REMARK  161  A    between atoms: _388  and  _390
REMARK  162  A    between atoms: _390  and  _391
REMARK  163  A    between atoms: _390  and  _393
REMARK  164  A    between atoms: _393  and  _394
REMARK  165  A    between atoms: _394  and  _395
REMARK  166  A    between atoms: _395  and  _396
REMARK  167  A    between atoms: _396  and  _397
REMARK  168  A    between atoms: _401  and  _403
REMARK  169  A    between atoms: _403  and  _404
REMARK  170  A    between atoms: _403  and  _406
REMARK  171  A    between atoms: _406  and  _407
REMARK  172  A    between atoms: _407  and  _408
REMARK  173  A    between atoms: _410  and  _412
REMARK  174  A    between atoms: _412  and  _413
REMARK  175  A    between atoms: _412  and  _415
REMARK  176  A    between atoms: _415  and  _416
REMARK  177  A    between atoms: _419  and  _421
REMARK  178  A    between atoms: _421  and  _422
REMARK  179  A    between atoms: _424  and  _426
REMARK  180  A    between atoms: _426  and  _427
REMARK  181  A    between atoms: _429  and  _431
REMARK  182  A    between atoms: _431  and  _432
REMARK  183  A    between atoms: _431  and  _434
REMARK  184  A    between atoms: _434  and  _435
REMARK  185  A    between atoms: _438  and  _440
REMARK  186  A    between atoms: _440  and  _441
REMARK  187  A    between atoms: _443  and  _445
REMARK  188  A    between atoms: _445  and  _446
REMARK  189  A    between atoms: _448  and  _450
REMARK  190  A    between atoms: _450  and  _451
REMARK  191  A    between atoms: _450  and  _453
REMARK  192  A    between atoms: _453  and  _454
REMARK  193  A    between atoms: _460  and  _462
REMARK  194  A    between atoms: _462  and  _463
REMARK  195  A    between atoms: _462  and  _465
REMARK  196  A    between atoms: _465  and  _466
REMARK  197  A    between atoms: _469  and  _471
REMARK  198  A    between atoms: _471  and  _472
REMARK  199  A    between atoms: _471  and  _474
REMARK  200  A    between atoms: _477  and  _479
REMARK  201  A    between atoms: _479  and  _480
REMARK  202  A    between atoms: _479  and  _482
REMARK  203  A    between atoms: _482  and  _483
REMARK  204  A    between atoms: _486  and  _488
REMARK  205  A    between atoms: _488  and  _489
REMARK  206  A    between atoms: _488  and  _491
REMARK  207  A    between atoms: _491  and  _492
REMARK  208  A    between atoms: _496  and  _497
REMARK  209  A    between atoms: _502  and  _504
REMARK  210  A    between atoms: _504  and  _505
REMARK  211  A    between atoms: _508  and  _510
REMARK  212  A    between atoms: _510  and  _511
REMARK  213  A    between atoms: _510  and  _513
REMARK  214  A    between atoms: _513  and  _514
REMARK  215  A    between atoms: _519  and  _521
REMARK  216  A    between atoms: _521  and  _522
REMARK  217  A    between atoms: _521  and  _524
REMARK  218  A    between atoms: _524  and  _525
REMARK  219  A    between atoms: _528  and  _530
REMARK  220  A    between atoms: _530  and  _531
REMARK  221  A    between atoms: _530  and  _533
REMARK  222  A    between atoms: _533  and  _534
REMARK  223  A    between atoms: _537  and  _539
REMARK  224  A    between atoms: _539  and  _540
REMARK  225  A    between atoms: _542  and  _544
REMARK  226  A    between atoms: _544  and  _545
REMARK  227  A    between atoms: _544  and  _547
REMARK  228  A    between atoms: _547  and  _548
REMARK  229  A    between atoms: _548  and  _549
REMARK  230  A    between atoms: _549  and  _550
REMARK  231  A    between atoms: _559  and  _561
REMARK  232  A    between atoms: _561  and  _562
REMARK  233  A    between atoms: _561  and  _564
REMARK  234  A    between atoms: _564  and  _565
REMARK                            x       y       z     vdW  Elec       q    Type
REMARK                         _______ _______ _______ _____ _____    ______ ____
ROOT
ATOM      1  C   GLY A   5      19.680  21.396   5.921  0.00  0.00    +0.243 C 
ATOM      2  O   GLY A   5      19.206  22.464   5.532  0.00  0.00    -0.273 OA
ATOM      3  N   ILE A   6      19.205  20.233   5.501  0.00  0.00    -0.297 N 
ATOM      4  H   ILE A   6      19.617  19.340   5.839  0.00  0.00    +0.150 HD
ENDROOT
BRANCH   3   5
ATOM      5  CA  ILE A   6      18.102  20.228   4.563  0.00  0.00    +0.149 C 
BRANCH   5   6
ATOM      6  C   ILE A   6      16.850  20.789   5.182  0.00  0.00    +0.241 C 
ATOM      7  N   GLY A   7      16.686  20.700   6.503  0.00  0.00    -0.295 N 
ATOM      8  H   GLY A   7      17.387  20.250   7.125  0.00  0.00    +0.150 HD
ATOM      9  O   ILE A   6      16.008  21.323   4.470  0.00  0.00    -0.273 OA
BRANCH   7  10
ATOM     10  CA  GLY A   7      15.433  21.289   7.014  0.00  0.00    +0.176 C 
BRANCH  10  11
ATOM     11  C   GLY A   7      15.547  22.652   7.641  0.00  0.00    +0.243 C 
ATOM     12  O   GLY A   7      14.652  23.174   8.305  0.00  0.00    -0.273 OA
ATOM     13  N   GLY A   8      16.658  23.347   7.446  0.00  0.00    -0.295 N 
ATOM     14  H   GLY A   8      17.398  22.928   6.847  0.00  0.00    +0.150 HD
BRANCH  13  15
ATOM     15  CA  GLY A   8      16.907  24.670   8.024  0.00  0.00    +0.176 C 
BRANCH  15  16
ATOM     16  C   GLY A   8      18.114  24.659   8.947  0.00  0.00    +0.243 C 
ATOM     17  N   PHE A   9      18.199  25.653   9.814  0.00  0.00    -0.297 N 
ATOM     18  H   PHE A   9      17.400  26.314   9.896  0.00  0.00    +0.150 HD
ATOM     19  O   GLY A   8      18.975  23.760   8.892  0.00  0.00    -0.273 OA
BRANCH  17  20
ATOM     20  CA  PHE A   9      19.369  25.861  10.661  0.00  0.00    +0.153 C 
BRANCH  20  21
ATOM     21  C   PHE A   9      19.165  25.498  12.122  0.00  0.00    +0.241 C 
ATOM     22  N   ILE A  10      20.248  25.039  12.750  0.00  0.00    -0.298 N 
ATOM     23  H   ILE A  10      21.100  24.833  12.190  0.00  0.00    +0.150 HD
ATOM     24  O   PHE A   9      18.066  25.645  12.654  0.00  0.00    -0.273 OA
BRANCH  22  25
ATOM     25  CA  ILE A  10      20.286  24.815  14.190  0.00  0.00    +0.137 C 
BRANCH  25  26
ATOM     26  C   ILE A  10      21.488  25.581  14.757  0.00  0.00    +0.227 C 
ATOM     27  O   ILE A  10      22.489  25.831  14.100  0.00  0.00    -0.286 OA
ENDBRANCH  25  26
BRANCH  25  28
ATOM     28  CB  ILE A  10      20.371  23.331  14.559  0.00  0.00    +0.026 C 
ATOM     29  CG2 ILE A  10      19.133  22.606  14.059  0.00  0.00    +0.002 C 
BRANCH  28  30
ATOM     30  CG1 ILE A  10      21.644  22.647  14.061  0.00  0.00    +0.002 C 
ATOM     31  CD1 ILE A  10      21.865  21.230  14.591  0.00  0.00    +0.000 C 
ENDBRANCH  28  30
ENDBRANCH  25  28
ENDBRANCH  22  25
ENDBRANCH  20  21
BRANCH  20  32
ATOM     32  CB  PHE A   9      19.767  27.347  10.593  0.00  0.00    +0.055 C 
BRANCH  32  33
ATOM     33  CG  PHE A   9      20.401  27.760   9.269  0.00  0.00    -0.020 A 
ATOM     34  CD2 PHE A   9      21.763  27.931   9.153  0.00  0.00    -0.004 A 
ATOM     35  CE2 PHE A   9      22.405  28.287   7.977  0.00  0.00    -0.000 A 
ATOM     36  CZ  PHE A   9      21.610  28.550   6.872  0.00  0.00    -0.000 A 
ATOM     37  CE1 PHE A   9      20.234  28.381   6.968  0.00  0.00    -0.000 A 
ATOM     38  CD1 PHE A   9      19.618  28.009   8.149  0.00  0.00    -0.004 A 
ENDBRANCH  32  33
ENDBRANCH  20  32
ENDBRANCH  17  20
ENDBRANCH  15  16
ENDBRANCH  13  15
ENDBRANCH  10  11
ENDBRANCH   7  10
ENDBRANCH   5   6
BRANCH   5  39
ATOM     39  CB  ILE A   6      17.875  18.806   4.000  0.00  0.00    +0.027 C 
ATOM     40  CG2 ILE A   6      19.095  18.418   3.145  0.00  0.00    +0.002 C 
BRANCH  39  41
ATOM     41  CG1 ILE A   6      17.568  17.727   5.019  0.00  0.00    +0.002 C 
ATOM     42  CD1 ILE A   6      16.914  16.480   4.413  0.00  0.00    +0.000 C 
ENDBRANCH  39  41
ENDBRANCH   5  39
ENDBRANCH   3   5
BRANCH   1  43
ATOM     43  CA  GLY A   5      20.816  21.351   6.931  0.00  0.00    +0.176 C 
BRANCH  43  45
ATOM     44  C   GLY A   4      22.186  23.372   7.302  0.00  0.00    +0.243 C 
ATOM     45  N   GLY A   5      21.073  22.691   7.461  0.00  0.00    -0.295 N 
ATOM     46  H   GLY A   5      20.312  23.141   8.009  0.00  0.00    +0.150 HD
ATOM     47  O   GLY A   4      23.180  22.932   6.735  0.00  0.00    -0.273 OA
BRANCH  44  48
ATOM     48  CA  GLY A   4      22.165  24.749   7.940  0.00  0.00    +0.176 C 
BRANCH  48  51
ATOM     49  C   ILE A   3      23.324  25.058  10.046  0.00  0.00    +0.241 C 
ATOM     50  O   ILE A   3      22.327  24.857  10.733  0.00  0.00    -0.273 OA
ATOM     51  N   GLY A   4      23.380  24.933   8.721  0.00  0.00    -0.295 N 
ATOM     52  H   GLY A   4      24.301  24.967   8.239  0.00  0.00    +0.150 HD
BRANCH  49  53
ATOM     53  CA  ILE A   3      24.615  25.510  10.700  0.00  0.00    +0.149 C 
BRANCH  53  55
ATOM     54  C   MET A   2      24.792  27.596  11.935  0.00  0.00    +0.241 C 
ATOM     55  N   ILE A   3      24.281  26.392  11.828  0.00  0.00    -0.297 N 
ATOM     56  H   ILE A   3      23.624  26.053  12.559  0.00  0.00    +0.150 HD
ATOM     57  O   MET A   2      25.576  28.064  11.095  0.00  0.00    -0.273 OA
BRANCH  54  58
ATOM     58  CA  MET A   2      24.389  28.444  13.139  0.00  0.00    +0.149 C 
BRANCH  58  61
ATOM     59  C   LYS A   1      26.043  28.508  14.934  0.00  0.00    +0.238 C 
ATOM     60  O   LYS A   1      25.392  27.739  15.672  0.00  0.00    -0.274 OA
ATOM     61  N   MET A   2      25.604  28.953  13.755  0.00  0.00    -0.297 N 
ATOM     62  H   MET A   2      26.149  29.688  13.260  0.00  0.00    +0.150 HD
BRANCH  59  63
ATOM     63  CA  LYS A   1      27.449  28.976  15.340  0.00  0.00    +0.145 C 
BRANCH  63  64
ATOM     64  N   LYS A   1      27.501  29.095  16.790  0.00  0.00    -0.238 NA
ATOM     65  H   LYS A   1      26.907  28.443  17.341  0.00  0.00    +0.142 HD
ENDBRANCH  63  64
BRANCH  63  66
ATOM     66  CB  LYS A   1      28.502  27.993  14.821  0.00  0.00    +0.026 C 
BRANCH  66  67
ATOM     67  CG  LYS A   1      28.780  27.963  13.331  0.00  0.00    -0.000 C 
BRANCH  67  68
ATOM     68  CD  LYS A   1      29.816  26.939  12.893  0.00  0.00    -0.024 C 
BRANCH  68  69
ATOM     69  CE  LYS A   1      30.143  27.048  11.410  0.00  0.00    -0.086 C 
BRANCH  69  70
ATOM     70  NZ  LYS A   1      30.948  25.953  10.826  0.00  0.00    +0.380 N 
ATOM     71  HZ1 LYS A   1      31.864  25.899  11.315  0.00  0.00    -0.089 HD
ATOM     72  HZ2 LYS A   1      30.440  25.053  10.939  0.00  0.00    -0.089 HD
ATOM     73  HZ3 LYS A   1      31.104  26.140   9.815  0.00  0.00    -0.089 HD
ENDBRANCH  69  70
ENDBRANCH  68  69
ENDBRANCH  67  68
ENDBRANCH  66  67
ENDBRANCH  63  66
ENDBRANCH  59  63
ENDBRANCH  58  61
BRANCH  58  74
ATOM     74  CB  MET A   2      23.477  29.567  12.643  0.00  0.00    +0.041 C 
BRANCH  74  75
ATOM     75  CG  MET A   2      22.744  30.386  13.680  0.00  0.00    +0.060 C 
BRANCH  75  76
ATOM     76  SD  MET A   2      21.553  29.411  14.562  0.00  0.00    -0.139 S 
ATOM     77  CE  MET A   2      20.048  29.676  13.595  0.00  0.00    +0.069 C 
ENDBRANCH  75  76
ENDBRANCH  74  75
ENDBRANCH  58  74
ENDBRANCH  54  58
ENDBRANCH  53  55
BRANCH  53  78
ATOM     78  CB  ILE A   3      25.469  24.324  11.107  0.00  0.00    +0.027 C 
ATOM     79  CG2 ILE A   3      26.829  24.783  11.561  0.00  0.00    +0.002 C 
BRANCH  78  80
ATOM     80  CG1 ILE A   3      24.797  23.440  12.166  0.00  0.00    +0.002 C 
ATOM     81  CD1 ILE A   3      25.595  22.200  12.503  0.00  0.00    +0.000 C 
ENDBRANCH  78  80
ENDBRANCH  53  78
ENDBRANCH  49  53
ENDBRANCH  48  51
ENDBRANCH  44  48
ENDBRANCH  43  45
ENDBRANCH   1  43
TORSDOF 36
REMARK  Name = ../refined-set-2016/1sdv/1sdv_pocket.pdb
REMARK  234 active torsions:
REMARK  status: ('A' for Active; 'I' for Inactive)
REMARK    1  A    between atoms: _1  and  _3
REMARK    2  A    between atoms: _3  and  _4
REMARK    3  A    between atoms: _3  and  _6
REMARK    4  A    between atoms: _6  and  _7
REMARK    5  A    between atoms: _7  and  _8
REMARK    6  A    between atoms: _8  and  _9
REMARK    7  A    between atoms: _18  and  _20
REMARK    8  A    between atoms: _20  and  _21
REMARK    9  A    between atoms: _20  and  _23
REMARK   10  A    between atoms: _23  and  _24
REMARK   11  A    between atoms: _27  and  _29
REMARK   12  A    between atoms: _29  and  _30
REMARK   13  A    between atoms: _29  and  _32
REMARK   14  A    between atoms: _32  and  _33
REMARK   15  A    between atoms: _36  and  _38
REMARK   16  A    between atoms: _38  and  _39
REMARK   17  A    between atoms: _38  and  _41
REMARK   18  A    between atoms: _41  and  _42
REMARK   19  A    between atoms: _45  and  _47
REMARK   20  A    between atoms: _47  and  _48
REMARK   21  A    between atoms: _47  and  _50
REMARK   22  A    between atoms: _50  and  _51
REMARK   23  A    between atoms: _54  and  _56
REMARK   24  A    between atoms: _56  and  _57
REMARK   25  A    between atoms: _56  and  _59
REMARK   26  A    between atoms: _59  and  _60
REMARK   27  A    between atoms: _63  and  _65
REMARK   28  A    between atoms: _65  and  _66
REMARK   29  A    between atoms: _68  and  _70
REMARK   30  A    between atoms: _70  and  _71
REMARK   31  A    between atoms: _74  and  _76
REMARK   32  A    between atoms: _76  and  _77
REMARK   33  A    between atoms: _76  and  _79
REMARK   34  A    between atoms: _79  and  _80
REMARK   35  A    between atoms: _83  and  _85
REMARK   36  A    between atoms: _85  and  _86
REMARK   37  A    between atoms: _85  and  _88
REMARK   38  A    between atoms: _88  and  _89
REMARK   39  A    between atoms: _92  and  _94
REMARK   40  A    between atoms: _94  and  _95
REMARK   41  A    between atoms: _94  and  _97
REMARK   42  A    between atoms: _97  and  _98
REMARK   43  A    between atoms: _101  and  _103
REMARK   44  A    between atoms: _103  and  _104
REMARK   45  A    between atoms: _103  and  _106
REMARK   46  A    between atoms: _109  and  _111
REMARK   47  A    between atoms: _111  and  _112
REMARK   48  A    between atoms: _111  and  _114
REMARK   49  A    between atoms: _114  and  _115
REMARK   50  A    between atoms: _115  and  _116
REMARK   51  A    between atoms: _116  and  _117
REMARK   52  A    between atoms: _117  and  _118
REMARK   53  A    between atoms: _122  and  _124
REMARK   54  A    between atoms: _124  and  _125
REMARK   55  A    between atoms: _124  and  _127
REMARK   56  A    between atoms: _127  and  _128
REMARK   57  A    between atoms: _128  and  _129
REMARK   58  A    between atoms: _131  and  _133
REMARK   59  A    between atoms: _133  and  _134
REMARK   60  A    between atoms: _133  and  _136
REMARK   61  A    between atoms: _136  and  _137
REMARK   62  A    between atoms: _140  and  _142
REMARK   63  A    between atoms: _142  and  _143
REMARK   64  A    between atoms: _145  and  _147
REMARK   65  A    between atoms: _147  and  _148
REMARK   66  A    between atoms: _150  and  _152
REMARK   67  A    between atoms: _152  and  _153
REMARK   68  A    between atoms: _152  and  _155
REMARK   69  A    between atoms: _155  and  _156
REMARK   70  A    between atoms: _159  and  _161
REMARK   71  A    between atoms: _161  and  _162
REMARK   72  A    between atoms: _164  and  _166
REMARK   73  A    between atoms: _166  and  _167
REMARK   74  A    between atoms: _169  and  _171
REMARK   75  A    between atoms: _171  and  _172
REMARK   76  A    between atoms: _171  and  _174
REMARK   77  A    between atoms: _174  and  _175
REMARK   78  A    between atoms: _181  and  _183
REMARK   79  A    between atoms: _183  and  _184
REMARK   80  A    between atoms: _183  and  _186
REMARK   81  A    between atoms: _186  and  _187
REMARK   82  A    between atoms: _190  and  _192
REMARK   83  A    between atoms: _192  and  _193
REMARK   84  A    between atoms: _192  and  _195
REMARK   85  A    between atoms: _198  and  _200
REMARK   86  A    between atoms: _200  and  _201
REMARK   87  A    between atoms: _200  and  _203
REMARK   88  A    between atoms: _203  and  _204
REMARK   89  A    between atoms: _207  and  _209
REMARK   90  A    between atoms: _209  and  _210
REMARK   91  A    between atoms: _209  and  _212
REMARK   92  A    between atoms: _212  and  _213
REMARK   93  A    between atoms: _217  and  _218
REMARK   94  A    between atoms: _223  and  _225
REMARK   95  A    between atoms: _225  and  _226
REMARK   96  A    between atoms: _229  and  _231
REMARK   97  A    between atoms: _231  and  _232
REMARK   98  A    between atoms: _231  and  _234
REMARK   99  A    between atoms: _234  and  _235
REMARK  100  A    between atoms: _240  and  _242
REMARK  101  A    between atoms: _242  and  _243
REMARK  102  A    between atoms: _242  and  _245
REMARK  103  A    between atoms: _245  and  _246
REMARK  104  A    between atoms: _249  and  _251
REMARK  105  A    between atoms: _251  and  _252
REMARK  106  A    between atoms: _251  and  _254
REMARK  107  A    between atoms: _254  and  _255
REMARK  108  A    between atoms: _258  and  _260
REMARK  109  A    between atoms: _260  and  _261
REMARK  110  A    between atoms: _263  and  _265
REMARK  111  A    between atoms: _265  and  _266
REMARK  112  A    between atoms: _265  and  _268
REMARK  113  A    between atoms: _268  and  _269
REMARK  114  A    between atoms: _269  and  _270
REMARK  115  A    between atoms: _270  and  _271
REMARK  116  A    between atoms: _280  and  _282
REMARK  117  A    between atoms: _282  and  _283
REMARK  118  A    between atoms: _282  and  _285
REMARK  119  A    between atoms: _285  and  _286
REMARK  120  A    between atoms: _286  and  _287
REMARK  121  A    between atoms: _287  and  _288
REMARK  122  A    between atoms: _297  and  _299
REMARK  123  A    between atoms: _299  and  _300
REMARK  124  A    between atoms: _299  and  _302
REMARK  125  A    between atoms: _302  and  _303
REMARK  126  A    between atoms: _306  and  _308
REMARK  127  A    between atoms: _308  and  _309
REMARK  128  A    between atoms: _308  and  _311
REMARK  129  A    between atoms: _311  and  _312
REMARK  130  A    between atoms: _315  and  _317
REMARK  131  A    between atoms: _317  and  _318
REMARK  132  A    between atoms: _317  and  _320
REMARK  133  A    between atoms: _320  and  _321
REMARK  134  A    between atoms: _324  and  _326
REMARK  135  A    between atoms: _326  and  _327
REMARK  136  A    between atoms: _326  and  _329
REMARK  137  A    between atoms: _329  and  _330
REMARK  138  A    between atoms: _333  and  _335
REMARK  139  A    between atoms: _335  and  _336
REMARK  140  A    between atoms: _338  and  _340
REMARK  141  A    between atoms: _340  and  _341
REMARK  142  A    between atoms: _344  and  _346
REMARK  143  A    between atoms: _346  and  _347
REMARK  144  A    between atoms: _346  and  _349
REMARK  145  A    between atoms: _349  and  _350
REMARK  146  A    between atoms: _353  and  _355
REMARK  147  A    between atoms: _355  and  _356
REMARK  148  A    between atoms: _355  and  _358
REMARK  149  A    between atoms: _358  and  _359
REMARK  150  A    between atoms: _362  and  _364
REMARK  151  A    between atoms: _364  and  _365
REMARK  152  A    between atoms: _364  and  _367
REMARK  153  A    between atoms: _367  and  _368
REMARK  154  A    between atoms: _371  and  _373
REMARK  155  A    between atoms: _373  and  _374
REMARK  156  A    between atoms: _373  and  _376
REMARK  157  A    between atoms: _379  and  _381
REMARK  158  A    between atoms: _381  and  _382
REMARK  159  A    between atoms: _381  and  _384
REMARK  160  A    between atoms: _384  and  _385
REMARK  161  A    between atoms: _388  and  _390
REMARK  162  A    between atoms: _390  and  _391
REMARK  163  A    between atoms: _390  and  _393
REMARK  164  A    between atoms: _393  and  _394
REMARK  165  A    between atoms: _394  and  _395
REMARK  166  A    between atoms: _395  and  _396
REMARK  167  A    between atoms: _396  and  _397
REMARK  168  A    between atoms: _401  and  _403
REMARK  169  A    between atoms: _403  and  _404
REMARK  170  A    between atoms: _403  and  _406
REMARK  171  A    between atoms: _406  and  _407
REMARK  172  A    between atoms: _407  and  _408
REMARK  173  A    between atoms: _410  and  _412
REMARK  174  A    between atoms: _412  and  _413
REMARK  175  A    between atoms: _412  and  _415
REMARK  176  A    between atoms: _415  and  _416
REMARK  177  A    between atoms: _419  and  _421
REMARK  178  A    between atoms: _421  and  _422
REMARK  179  A    between atoms: _424  and  _426
REMARK  180  A    between atoms: _426  and  _427
REMARK  181  A    between atoms: _429  and  _431
REMARK  182  A    between atoms: _431  and  _432
REMARK  183  A    between atoms: _431  and  _434
REMARK  184  A    between atoms: _434  and  _435
REMARK  185  A    between atoms: _438  and  _440
REMARK  186  A    between atoms: _440  and  _441
REMARK  187  A    between atoms: _443  and  _445
REMARK  188  A    between atoms: _445  and  _446
REMARK  189  A    between atoms: _448  and  _450
REMARK  190  A    between atoms: _450  and  _451
REMARK  191  A    between atoms: _450  and  _453
REMARK  192  A    between atoms: _453  and  _454
REMARK  193  A    between atoms: _460  and  _462
REMARK  194  A    between atoms: _462  and  _463
REMARK  195  A    between atoms: _462  and  _465
REMARK  196  A    between atoms: _465  and  _466
REMARK  197  A    between atoms: _469  and  _471
REMARK  198  A    between atoms: _471  and  _472
REMARK  199  A    between atoms: _471  and  _474
REMARK  200  A    between atoms: _477  and  _479
REMARK  201  A    between atoms: _479  and  _480
REMARK  202  A    between atoms: _479  and  _482
REMARK  203  A    between atoms: _482  and  _483
REMARK  204  A    between atoms: _486  and  _488
REMARK  205  A    between atoms: _488  and  _489
REMARK  206  A    between atoms: _488  and  _491
REMARK  207  A    between atoms: _491  and  _492
REMARK  208  A    between atoms: _496  and  _497
REMARK  209  A    between atoms: _502  and  _504
REMARK  210  A    between atoms: _504  and  _505
REMARK  211  A    between atoms: _508  and  _510
REMARK  212  A    between atoms: _510  and  _511
REMARK  213  A    between atoms: _510  and  _513
REMARK  214  A    between atoms: _513  and  _514
REMARK  215  A    between atoms: _519  and  _521
REMARK  216  A    between atoms: _521  and  _522
REMARK  217  A    between atoms: _521  and  _524
REMARK  218  A    between atoms: _524  and  _525
REMARK  219  A    between atoms: _528  and  _530
REMARK  220  A    between atoms: _530  and  _531
REMARK  221  A    between atoms: _530  and  _533
REMARK  222  A    between atoms: _533  and  _534
REMARK  223  A    between atoms: _537  and  _539
REMARK  224  A    between atoms: _539  and  _540
REMARK  225  A    between atoms: _542  and  _544
REMARK  226  A    between atoms: _544  and  _545
REMARK  227  A    between atoms: _544  and  _547
REMARK  228  A    between atoms: _547  and  _548
REMARK  229  A    between atoms: _548  and  _549
REMARK  230  A    between atoms: _549  and  _550
REMARK  231  A    between atoms: _559  and  _561
REMARK  232  A    between atoms: _561  and  _562
REMARK  233  A    between atoms: _561  and  _564
REMARK  234  A    between atoms: _564  and  _565
REMARK                            x       y       z     vdW  Elec       q    Type
REMARK                         _______ _______ _______ _____ _____    ______ ____
ROOT
ATOM      1  CA  VAL A   1      25.502  24.745  18.040  0.00  0.00    +0.133 C 
ENDROOT
BRANCH   1   2
ATOM      2  CB  VAL A   1      26.137  23.834  16.981  0.00  0.00    +0.023 C 
ATOM      3  CG2 VAL A   1      25.059  23.011  16.311  0.00  0.00    +0.002 C 
ATOM      4  CG1 VAL A   1      26.918  24.668  15.959  0.00  0.00    +0.002 C 
ENDBRANCH   1   2
BRANCH   1   5
ATOM      5  N   VAL A   1      24.537  25.620  17.405  0.00  0.00    -0.239 NA
ATOM      6  H   VAL A   1      24.898  26.388  16.804  0.00  0.00    +0.142 HD
ENDBRANCH   1   5
BRANCH   1   7
ATOM      7  C   VAL A   1      26.605  25.536  18.744  0.00  0.00    +0.224 C 
ATOM      8  O   VAL A   1      26.774  26.737  18.575  0.00  0.00    -0.287 OA
ENDBRANCH   1   7
TORSDOF 3
REMARK  Name = ../refined-set-2016/1sdv/1sdv_pocket.pdb
REMARK  234 active torsions:
REMARK  status: ('A' for Active; 'I' for Inactive)
REMARK    1  A    between atoms: _1  and  _3
REMARK    2  A    between atoms: _3  and  _4
REMARK    3  A    between atoms: _3  and  _6
REMARK    4  A    between atoms: _6  and  _7
REMARK    5  A    between atoms: _7  and  _8
REMARK    6  A    between atoms: _8  and  _9
REMARK    7  A    between atoms: _18  and  _20
REMARK    8  A    between atoms: _20  and  _21
REMARK    9  A    between atoms: _20  and  _23
REMARK   10  A    between atoms: _23  and  _24
REMARK   11  A    between atoms: _27  and  _29
REMARK   12  A    between atoms: _29  and  _30
REMARK   13  A    between atoms: _29  and  _32
REMARK   14  A    between atoms: _32  and  _33
REMARK   15  A    between atoms: _36  and  _38
REMARK   16  A    between atoms: _38  and  _39
REMARK   17  A    between atoms: _38  and  _41
REMARK   18  A    between atoms: _41  and  _42
REMARK   19  A    between atoms: _45  and  _47
REMARK   20  A    between atoms: _47  and  _48
REMARK   21  A    between atoms: _47  and  _50
REMARK   22  A    between atoms: _50  and  _51
REMARK   23  A    between atoms: _54  and  _56
REMARK   24  A    between atoms: _56  and  _57
REMARK   25  A    between atoms: _56  and  _59
REMARK   26  A    between atoms: _59  and  _60
REMARK   27  A    between atoms: _63  and  _65
REMARK   28  A    between atoms: _65  and  _66
REMARK   29  A    between atoms: _68  and  _70
REMARK   30  A    between atoms: _70  and  _71
REMARK   31  A    between atoms: _74  and  _76
REMARK   32  A    between atoms: _76  and  _77
REMARK   33  A    between atoms: _76  and  _79
REMARK   34  A    between atoms: _79  and  _80
REMARK   35  A    between atoms: _83  and  _85
REMARK   36  A    between atoms: _85  and  _86
REMARK   37  A    between atoms: _85  and  _88
REMARK   38  A    between atoms: _88  and  _89
REMARK   39  A    between atoms: _92  and  _94
REMARK   40  A    between atoms: _94  and  _95
REMARK   41  A    between atoms: _94  and  _97
REMARK   42  A    between atoms: _97  and  _98
REMARK   43  A    between atoms: _101  and  _103
REMARK   44  A    between atoms: _103  and  _104
REMARK   45  A    between atoms: _103  and  _106
REMARK   46  A    between atoms: _109  and  _111
REMARK   47  A    between atoms: _111  and  _112
REMARK   48  A    between atoms: _111  and  _114
REMARK   49  A    between atoms: _114  and  _115
REMARK   50  A    between atoms: _115  and  _116
REMARK   51  A    between atoms: _116  and  _117
REMARK   52  A    between atoms: _117  and  _118
REMARK   53  A    between atoms: _122  and  _124
REMARK   54  A    between atoms: _124  and  _125
REMARK   55  A    between atoms: _124  and  _127
REMARK   56  A    between atoms: _127  and  _128
REMARK   57  A    between atoms: _128  and  _129
REMARK   58  A    between atoms: _131  and  _133
REMARK   59  A    between atoms: _133  and  _134
REMARK   60  A    between atoms: _133  and  _136
REMARK   61  A    between atoms: _136  and  _137
REMARK   62  A    between atoms: _140  and  _142
REMARK   63  A    between atoms: _142  and  _143
REMARK   64  A    between atoms: _145  and  _147
REMARK   65  A    between atoms: _147  and  _148
REMARK   66  A    between atoms: _150  and  _152
REMARK   67  A    between atoms: _152  and  _153
REMARK   68  A    between atoms: _152  and  _155
REMARK   69  A    between atoms: _155  and  _156
REMARK   70  A    between atoms: _159  and  _161
REMARK   71  A    between atoms: _161  and  _162
REMARK   72  A    between atoms: _164  and  _166
REMARK   73  A    between atoms: _166  and  _167
REMARK   74  A    between atoms: _169  and  _171
REMARK   75  A    between atoms: _171  and  _172
REMARK   76  A    between atoms: _171  and  _174
REMARK   77  A    between atoms: _174  and  _175
REMARK   78  A    between atoms: _181  and  _183
REMARK   79  A    between atoms: _183  and  _184
REMARK   80  A    between atoms: _183  and  _186
REMARK   81  A    between atoms: _186  and  _187
REMARK   82  A    between atoms: _190  and  _192
REMARK   83  A    between atoms: _192  and  _193
REMARK   84  A    between atoms: _192  and  _195
REMARK   85  A    between atoms: _198  and  _200
REMARK   86  A    between atoms: _200  and  _201
REMARK   87  A    between atoms: _200  and  _203
REMARK   88  A    between atoms: _203  and  _204
REMARK   89  A    between atoms: _207  and  _209
REMARK   90  A    between atoms: _209  and  _210
REMARK   91  A    between atoms: _209  and  _212
REMARK   92  A    between atoms: _212  and  _213
REMARK   93  A    between atoms: _217  and  _218
REMARK   94  A    between atoms: _223  and  _225
REMARK   95  A    between atoms: _225  and  _226
REMARK   96  A    between atoms: _229  and  _231
REMARK   97  A    between atoms: _231  and  _232
REMARK   98  A    between atoms: _231  and  _234
REMARK   99  A    between atoms: _234  and  _235
REMARK  100  A    between atoms: _240  and  _242
REMARK  101  A    between atoms: _242  and  _243
REMARK  102  A    between atoms: _242  and  _245
REMARK  103  A    between atoms: _245  and  _246
REMARK  104  A    between atoms: _249  and  _251
REMARK  105  A    between atoms: _251  and  _252
REMARK  106  A    between atoms: _251  and  _254
REMARK  107  A    between atoms: _254  and  _255
REMARK  108  A    between atoms: _258  and  _260
REMARK  109  A    between atoms: _260  and  _261
REMARK  110  A    between atoms: _263  and  _265
REMARK  111  A    between atoms: _265  and  _266
REMARK  112  A    between atoms: _265  and  _268
REMARK  113  A    between atoms: _268  and  _269
REMARK  114  A    between atoms: _269  and  _270
REMARK  115  A    between atoms: _270  and  _271
REMARK  116  A    between atoms: _280  and  _282
REMARK  117  A    between atoms: _282  and  _283
REMARK  118  A    between atoms: _282  and  _285
REMARK  119  A    between atoms: _285  and  _286
REMARK  120  A    between atoms: _286  and  _287
REMARK  121  A    between atoms: _287  and  _288
REMARK  122  A    between atoms: _297  and  _299
REMARK  123  A    between atoms: _299  and  _300
REMARK  124  A    between atoms: _299  and  _302
REMARK  125  A    between atoms: _302  and  _303
REMARK  126  A    between atoms: _306  and  _308
REMARK  127  A    between atoms: _308  and  _309
REMARK  128  A    between atoms: _308  and  _311
REMARK  129  A    between atoms: _311  and  _312
REMARK  130  A    between atoms: _315  and  _317
REMARK  131  A    between atoms: _317  and  _318
REMARK  132  A    between atoms: _317  and  _320
REMARK  133  A    between atoms: _320  and  _321
REMARK  134  A    between atoms: _324  and  _326
REMARK  135  A    between atoms: _326  and  _327
REMARK  136  A    between atoms: _326  and  _329
REMARK  137  A    between atoms: _329  and  _330
REMARK  138  A    between atoms: _333  and  _335
REMARK  139  A    between atoms: _335  and  _336
REMARK  140  A    between atoms: _338  and  _340
REMARK  141  A    between atoms: _340  and  _341
REMARK  142  A    between atoms: _344  and  _346
REMARK  143  A    between atoms: _346  and  _347
REMARK  144  A    between atoms: _346  and  _349
REMARK  145  A    between atoms: _349  and  _350
REMARK  146  A    between atoms: _353  and  _355
REMARK  147  A    between atoms: _355  and  _356
REMARK  148  A    between atoms: _355  and  _358
REMARK  149  A    between atoms: _358  and  _359
REMARK  150  A    between atoms: _362  and  _364
REMARK  151  A    between atoms: _364  and  _365
REMARK  152  A    between atoms: _364  and  _367
REMARK  153  A    between atoms: _367  and  _368
REMARK  154  A    between atoms: _371  and  _373
REMARK  155  A    between atoms: _373  and  _374
REMARK  156  A    between atoms: _373  and  _376
REMARK  157  A    between atoms: _379  and  _381
REMARK  158  A    between atoms: _381  and  _382
REMARK  159  A    between atoms: _381  and  _384
REMARK  160  A    between atoms: _384  and  _385
REMARK  161  A    between atoms: _388  and  _390
REMARK  162  A    between atoms: _390  and  _391
REMARK  163  A    between atoms: _390  and  _393
REMARK  164  A    between atoms: _393  and  _394
REMARK  165  A    between atoms: _394  and  _395
REMARK  166  A    between atoms: _395  and  _396
REMARK  167  A    between atoms: _396  and  _397
REMARK  168  A    between atoms: _401  and  _403
REMARK  169  A    between atoms: _403  and  _404
REMARK  170  A    between atoms: _403  and  _406
REMARK  171  A    between atoms: _406  and  _407
REMARK  172  A    between atoms: _407  and  _408
REMARK  173  A    between atoms: _410  and  _412
REMARK  174  A    between atoms: _412  and  _413
REMARK  175  A    between atoms: _412  and  _415
REMARK  176  A    between atoms: _415  and  _416
REMARK  177  A    between atoms: _419  and  _421
REMARK  178  A    between atoms: _421  and  _422
REMARK  179  A    between atoms: _424  and  _426
REMARK  180  A    between atoms: _426  and  _427
REMARK  181  A    between atoms: _429  and  _431
REMARK  182  A    between atoms: _431  and  _432
REMARK  183  A    between atoms: _431  and  _434
REMARK  184  A    between atoms: _434  and  _435
REMARK  185  A    between atoms: _438  and  _440
REMARK  186  A    between atoms: _440  and  _441
REMARK  187  A    between atoms: _443  and  _445
REMARK  188  A    between atoms: _445  and  _446
REMARK  189  A    between atoms: _448  and  _450
REMARK  190  A    between atoms: _450  and  _451
REMARK  191  A    between atoms: _450  and  _453
REMARK  192  A    between atoms: _453  and  _454
REMARK  193  A    between atoms: _460  and  _462
REMARK  194  A    between atoms: _462  and  _463
REMARK  195  A    between atoms: _462  and  _465
REMARK  196  A    between atoms: _465  and  _466
REMARK  197  A    between atoms: _469  and  _471
REMARK  198  A    between atoms: _471  and  _472
REMARK  199  A    between atoms: _471  and  _474
REMARK  200  A    between atoms: _477  and  _479
REMARK  201  A    between atoms: _479  and  _480
REMARK  202  A    between atoms: _479  and  _482
REMARK  203  A    between atoms: _482  and  _483
REMARK  204  A    between atoms: _486  and  _488
REMARK  205  A    between atoms: _488  and  _489
REMARK  206  A    between atoms: _488  and  _491
REMARK  207  A    between atoms: _491  and  _492
REMARK  208  A    between atoms: _496  and  _497
REMARK  209  A    between atoms: _502  and  _504
REMARK  210  A    between atoms: _504  and  _505
REMARK  211  A    between atoms: _508  and  _510
REMARK  212  A    between atoms: _510  and  _511
REMARK  213  A    between atoms: _510  and  _513
REMARK  214  A    between atoms: _513  and  _514
REMARK  215  A    between atoms: _519  and  _521
REMARK  216  A    between atoms: _521  and  _522
REMARK  217  A    between atoms: _521  and  _524
REMARK  218  A    between atoms: _524  and  _525
REMARK  219  A    between atoms: _528  and  _530
REMARK  220  A    between atoms: _530  and  _531
REMARK  221  A    between atoms: _530  and  _533
REMARK  222  A    between atoms: _533  and  _534
REMARK  223  A    between atoms: _537  and  _539
REMARK  224  A    between atoms: _539  and  _540
REMARK  225  A    between atoms: _542  and  _544
REMARK  226  A    between atoms: _544  and  _545
REMARK  227  A    between atoms: _544  and  _547
REMARK  228  A    between atoms: _547  and  _548
REMARK  229  A    between atoms: _548  and  _549
REMARK  230  A    between atoms: _549  and  _550
REMARK  231  A    between atoms: _559  and  _561
REMARK  232  A    between atoms: _561  and  _562
REMARK  233  A    between atoms: _561  and  _564
REMARK  234  A    between atoms: _564  and  _565
REMARK                            x       y       z     vdW  Elec       q    Type
REMARK                         _______ _______ _______ _____ _____    ______ ____
ROOT
ATOM      1  CA  LEU A   1      30.254  21.373  16.788  0.00  0.00    +0.133 C 
ENDROOT
BRANCH   1   2
ATOM      2  N   LEU A   1      31.443  20.621  16.413  0.00  0.00    -0.239 NA
ATOM      3  H   LEU A   1      31.397  19.967  15.606  0.00  0.00    +0.142 HD
ENDBRANCH   1   2
BRANCH   1   4
ATOM      4  C   LEU A   1      29.367  20.491  17.632  0.00  0.00    +0.224 C 
ATOM      5  O   LEU A   1      29.252  19.287  17.351  0.00  0.00    -0.287 OA
ENDBRANCH   1   4
BRANCH   1   6
ATOM      6  CB  LEU A   1      29.505  21.848  15.554  0.00  0.00    +0.025 C 
BRANCH   6   7
ATOM      7  CG  LEU A   1      30.345  22.539  14.470  0.00  0.00    +0.002 C 
ATOM      8  CD2 LEU A   1      31.079  23.744  15.041  0.00  0.00    +0.000 C 
ATOM      9  CD1 LEU A   1      29.484  22.917  13.269  0.00  0.00    +0.000 C 
ENDBRANCH   6   7
ENDBRANCH   1   6
TORSDOF 4
REMARK  Name = ../refined-set-2016/1sdv/1sdv_pocket.pdb
REMARK  234 active torsions:
REMARK  status: ('A' for Active; 'I' for Inactive)
REMARK    1  A    between atoms: _1  and  _3
REMARK    2  A    between atoms: _3  and  _4
REMARK    3  A    between atoms: _3  and  _6
REMARK    4  A    between atoms: _6  and  _7
REMARK    5  A    between atoms: _7  and  _8
REMARK    6  A    between atoms: _8  and  _9
REMARK    7  A    between atoms: _18  and  _20
REMARK    8  A    between atoms: _20  and  _21
REMARK    9  A    between atoms: _20  and  _23
REMARK   10  A    between atoms: _23  and  _24
REMARK   11  A    between atoms: _27  and  _29
REMARK   12  A    between atoms: _29  and  _30
REMARK   13  A    between atoms: _29  and  _32
REMARK   14  A    between atoms: _32  and  _33
REMARK   15  A    between atoms: _36  and  _38
REMARK   16  A    between atoms: _38  and  _39
REMARK   17  A    between atoms: _38  and  _41
REMARK   18  A    between atoms: _41  and  _42
REMARK   19  A    between atoms: _45  and  _47
REMARK   20  A    between atoms: _47  and  _48
REMARK   21  A    between atoms: _47  and  _50
REMARK   22  A    between atoms: _50  and  _51
REMARK   23  A    between atoms: _54  and  _56
REMARK   24  A    between atoms: _56  and  _57
REMARK   25  A    between atoms: _56  and  _59
REMARK   26  A    between atoms: _59  and  _60
REMARK   27  A    between atoms: _63  and  _65
REMARK   28  A    between atoms: _65  and  _66
REMARK   29  A    between atoms: _68  and  _70
REMARK   30  A    between atoms: _70  and  _71
REMARK   31  A    between atoms: _74  and  _76
REMARK   32  A    between atoms: _76  and  _77
REMARK   33  A    between atoms: _76  and  _79
REMARK   34  A    between atoms: _79  and  _80
REMARK   35  A    between atoms: _83  and  _85
REMARK   36  A    between atoms: _85  and  _86
REMARK   37  A    between atoms: _85  and  _88
REMARK   38  A    between atoms: _88  and  _89
REMARK   39  A    between atoms: _92  and  _94
REMARK   40  A    between atoms: _94  and  _95
REMARK   41  A    between atoms: _94  and  _97
REMARK   42  A    between atoms: _97  and  _98
REMARK   43  A    between atoms: _101  and  _103
REMARK   44  A    between atoms: _103  and  _104
REMARK   45  A    between atoms: _103  and  _106
REMARK   46  A    between atoms: _109  and  _111
REMARK   47  A    between atoms: _111  and  _112
REMARK   48  A    between atoms: _111  and  _114
REMARK   49  A    between atoms: _114  and  _115
REMARK   50  A    between atoms: _115  and  _116
REMARK   51  A    between atoms: _116  and  _117
REMARK   52  A    between atoms: _117  and  _118
REMARK   53  A    between atoms: _122  and  _124
REMARK   54  A    between atoms: _124  and  _125
REMARK   55  A    between atoms: _124  and  _127
REMARK   56  A    between atoms: _127  and  _128
REMARK   57  A    between atoms: _128  and  _129
REMARK   58  A    between atoms: _131  and  _133
REMARK   59  A    between atoms: _133  and  _134
REMARK   60  A    between atoms: _133  and  _136
REMARK   61  A    between atoms: _136  and  _137
REMARK   62  A    between atoms: _140  and  _142
REMARK   63  A    between atoms: _142  and  _143
REMARK   64  A    between atoms: _145  and  _147
REMARK   65  A    between atoms: _147  and  _148
REMARK   66  A    between atoms: _150  and  _152
REMARK   67  A    between atoms: _152  and  _153
REMARK   68  A    between atoms: _152  and  _155
REMARK   69  A    between atoms: _155  and  _156
REMARK   70  A    between atoms: _159  and  _161
REMARK   71  A    between atoms: _161  and  _162
REMARK   72  A    between atoms: _164  and  _166
REMARK   73  A    between atoms: _166  and  _167
REMARK   74  A    between atoms: _169  and  _171
REMARK   75  A    between atoms: _171  and  _172
REMARK   76  A    between atoms: _171  and  _174
REMARK   77  A    between atoms: _174  and  _175
REMARK   78  A    between atoms: _181  and  _183
REMARK   79  A    between atoms: _183  and  _184
REMARK   80  A    between atoms: _183  and  _186
REMARK   81  A    between atoms: _186  and  _187
REMARK   82  A    between atoms: _190  and  _192
REMARK   83  A    between atoms: _192  and  _193
REMARK   84  A    between atoms: _192  and  _195
REMARK   85  A    between atoms: _198  and  _200
REMARK   86  A    between atoms: _200  and  _201
REMARK   87  A    between atoms: _200  and  _203
REMARK   88  A    between atoms: _203  and  _204
REMARK   89  A    between atoms: _207  and  _209
REMARK   90  A    between atoms: _209  and  _210
REMARK   91  A    between atoms: _209  and  _212
REMARK   92  A    between atoms: _212  and  _213
REMARK   93  A    between atoms: _217  and  _218
REMARK   94  A    between atoms: _223  and  _225
REMARK   95  A    between atoms: _225  and  _226
REMARK   96  A    between atoms: _229  and  _231
REMARK   97  A    between atoms: _231  and  _232
REMARK   98  A    between atoms: _231  and  _234
REMARK   99  A    between atoms: _234  and  _235
REMARK  100  A    between atoms: _240  and  _242
REMARK  101  A    between atoms: _242  and  _243
REMARK  102  A    between atoms: _242  and  _245
REMARK  103  A    between atoms: _245  and  _246
REMARK  104  A    between atoms: _249  and  _251
REMARK  105  A    between atoms: _251  and  _252
REMARK  106  A    between atoms: _251  and  _254
REMARK  107  A    between atoms: _254  and  _255
REMARK  108  A    between atoms: _258  and  _260
REMARK  109  A    between atoms: _260  and  _261
REMARK  110  A    between atoms: _263  and  _265
REMARK  111  A    between atoms: _265  and  _266
REMARK  112  A    between atoms: _265  and  _268
REMARK  113  A    between atoms: _268  and  _269
REMARK  114  A    between atoms: _269  and  _270
REMARK  115  A    between atoms: _270  and  _271
REMARK  116  A    between atoms: _280  and  _282
REMARK  117  A    between atoms: _282  and  _283
REMARK  118  A    between atoms: _282  and  _285
REMARK  119  A    between atoms: _285  and  _286
REMARK  120  A    between atoms: _286  and  _287
REMARK  121  A    between atoms: _287  and  _288
REMARK  122  A    between atoms: _297  and  _299
REMARK  123  A    between atoms: _299  and  _300
REMARK  124  A    between atoms: _299  and  _302
REMARK  125  A    between atoms: _302  and  _303
REMARK  126  A    between atoms: _306  and  _308
REMARK  127  A    between atoms: _308  and  _309
REMARK  128  A    between atoms: _308  and  _311
REMARK  129  A    between atoms: _311  and  _312
REMARK  130  A    between atoms: _315  and  _317
REMARK  131  A    between atoms: _317  and  _318
REMARK  132  A    between atoms: _317  and  _320
REMARK  133  A    between atoms: _320  and  _321
REMARK  134  A    between atoms: _324  and  _326
REMARK  135  A    between atoms: _326  and  _327
REMARK  136  A    between atoms: _326  and  _329
REMARK  137  A    between atoms: _329  and  _330
REMARK  138  A    between atoms: _333  and  _335
REMARK  139  A    between atoms: _335  and  _336
REMARK  140  A    between atoms: _338  and  _340
REMARK  141  A    between atoms: _340  and  _341
REMARK  142  A    between atoms: _344  and  _346
REMARK  143  A    between atoms: _346  and  _347
REMARK  144  A    between atoms: _346  and  _349
REMARK  145  A    between atoms: _349  and  _350
REMARK  146  A    between atoms: _353  and  _355
REMARK  147  A    between atoms: _355  and  _356
REMARK  148  A    between atoms: _355  and  _358
REMARK  149  A    between atoms: _358  and  _359
REMARK  150  A    between atoms: _362  and  _364
REMARK  151  A    between atoms: _364  and  _365
REMARK  152  A    between atoms: _364  and  _367
REMARK  153  A    between atoms: _367  and  _368
REMARK  154  A    between atoms: _371  and  _373
REMARK  155  A    between atoms: _373  and  _374
REMARK  156  A    between atoms: _373  and  _376
REMARK  157  A    between atoms: _379  and  _381
REMARK  158  A    between atoms: _381  and  _382
REMARK  159  A    between atoms: _381  and  _384
REMARK  160  A    between atoms: _384  and  _385
REMARK  161  A    between atoms: _388  and  _390
REMARK  162  A    between atoms: _390  and  _391
REMARK  163  A    between atoms: _390  and  _393
REMARK  164  A    between atoms: _393  and  _394
REMARK  165  A    between atoms: _394  and  _395
REMARK  166  A    between atoms: _395  and  _396
REMARK  167  A    between atoms: _396  and  _397
REMARK  168  A    between atoms: _401  and  _403
REMARK  169  A    between atoms: _403  and  _404
REMARK  170  A    between atoms: _403  and  _406
REMARK  171  A    between atoms: _406  and  _407
REMARK  172  A    between atoms: _407  and  _408
REMARK  173  A    between atoms: _410  and  _412
REMARK  174  A    between atoms: _412  and  _413
REMARK  175  A    between atoms: _412  and  _415
REMARK  176  A    between atoms: _415  and  _416
REMARK  177  A    between atoms: _419  and  _421
REMARK  178  A    between atoms: _421  and  _422
REMARK  179  A    between atoms: _424  and  _426
REMARK  180  A    between atoms: _426  and  _427
REMARK  181  A    between atoms: _429  and  _431
REMARK  182  A    between atoms: _431  and  _432
REMARK  183  A    between atoms: _431  and  _434
REMARK  184  A    between atoms: _434  and  _435
REMARK  185  A    between atoms: _438  and  _440
REMARK  186  A    between atoms: _440  and  _441
REMARK  187  A    between atoms: _443  and  _445
REMARK  188  A    between atoms: _445  and  _446
REMARK  189  A    between atoms: _448  and  _450
REMARK  190  A    between atoms: _450  and  _451
REMARK  191  A    between atoms: _450  and  _453
REMARK  192  A    between atoms: _453  and  _454
REMARK  193  A    between atoms: _460  and  _462
REMARK  194  A    between atoms: _462  and  _463
REMARK  195  A    between atoms: _462  and  _465
REMARK  196  A    between atoms: _465  and  _466
REMARK  197  A    between atoms: _469  and  _471
REMARK  198  A    between atoms: _471  and  _472
REMARK  199  A    between atoms: _471  and  _474
REMARK  200  A    between atoms: _477  and  _479
REMARK  201  A    between atoms: _479  and  _480
REMARK  202  A    between atoms: _479  and  _482
REMARK  203  A    between atoms: _482  and  _483
REMARK  204  A    between atoms: _486  and  _488
REMARK  205  A    between atoms: _488  and  _489
REMARK  206  A    between atoms: _488  and  _491
REMARK  207  A    between atoms: _491  and  _492
REMARK  208  A    between atoms: _496  and  _497
REMARK  209  A    between atoms: _502  and  _504
REMARK  210  A    between atoms: _504  and  _505
REMARK  211  A    between atoms: _508  and  _510
REMARK  212  A    between atoms: _510  and  _511
REMARK  213  A    between atoms: _510  and  _513
REMARK  214  A    between atoms: _513  and  _514
REMARK  215  A    between atoms: _519  and  _521
REMARK  216  A    between atoms: _521  and  _522
REMARK  217  A    between atoms: _521  and  _524
REMARK  218  A    between atoms: _524  and  _525
REMARK  219  A    between atoms: _528  and  _530
REMARK  220  A    between atoms: _530  and  _531
REMARK  221  A    between atoms: _530  and  _533
REMARK  222  A    between atoms: _533  and  _534
REMARK  223  A    between atoms: _537  and  _539
REMARK  224  A    between atoms: _539  and  _540
REMARK  225  A    between atoms: _542  and  _544
REMARK  226  A    between atoms: _544  and  _545
REMARK  227  A    between atoms: _544  and  _547
REMARK  228  A    between atoms: _547  and  _548
REMARK  229  A    between atoms: _548  and  _549
REMARK  230  A    between atoms: _549  and  _550
REMARK  231  A    between atoms: _559  and  _561
REMARK  232  A    between atoms: _561  and  _562
REMARK  233  A    between atoms: _561  and  _564
REMARK  234  A    between atoms: _564  and  _565
REMARK                            x       y       z     vdW  Elec       q    Type
REMARK                         _______ _______ _______ _____ _____    ______ ____
ROOT
ATOM      1  CA  ILE A   5      28.122  13.391  11.865  0.00  0.00    +0.149 C 
ENDROOT
BRANCH   1   3
ATOM      2  C   ASN A   4      26.934  12.187  13.649  0.00  0.00    +0.241 C 
ATOM      3  N   ILE A   5      27.602  13.252  13.208  0.00  0.00    -0.297 N 
ATOM      4  H   ILE A   5      27.760  14.036  13.873  0.00  0.00    +0.150 HD
ATOM      5  O   ASN A   4      26.794  11.153  13.043  0.00  0.00    -0.273 OA
BRANCH   2   6
ATOM      6  CA  ASN A   4      26.285  12.303  15.039  0.00  0.00    +0.158 C 
BRANCH   6   8
ATOM      7  C   ALA A   3      24.034  12.806  14.327  0.00  0.00    +0.241 C 
ATOM      8  N   ASN A   4      24.882  11.974  14.893  0.00  0.00    -0.297 N 
ATOM      9  H   ASN A   4      24.536  11.058  15.244  0.00  0.00    +0.150 HD
ATOM     10  O   ALA A   3      24.318  13.961  14.028  0.00  0.00    -0.273 OA
BRANCH   7  11
ATOM     11  CA  ALA A   3      22.653  12.238  14.007  0.00  0.00    +0.149 C 
ATOM     12  CB  ALA A   3      22.673  11.722  12.573  0.00  0.00    +0.031 C 
BRANCH  11  15
ATOM     13  C   PRO A   2      20.413  13.027  14.587  0.00  0.00    +0.241 C 
ATOM     14  O   PRO A   2      19.986  11.880  14.737  0.00  0.00    -0.273 OA
ATOM     15  N   ALA A   3      21.661  13.252  14.221  0.00  0.00    -0.297 N 
ATOM     16  H   ALA A   3      21.947  14.241  14.077  0.00  0.00    +0.150 HD
BRANCH  13  20
ATOM     17  C   THR A   1      20.930  15.897  15.834  0.00  0.00    +0.244 C 
ATOM     18  O   THR A   1      21.021  15.145  16.803  0.00  0.00    -0.273 OA
ATOM     19  N   PRO A   2      20.174  15.546  14.807  0.00  0.00    -0.272 N 
ATOM     20  CA  PRO A   2      19.518  14.240  14.806  0.00  0.00    +0.152 C 
ATOM     21  CB  PRO A   2      18.547  14.368  13.616  0.00  0.00    +0.031 C 
ATOM     22  CG  PRO A   2      19.107  15.423  12.738  0.00  0.00    +0.024 C 
ATOM     23  CD  PRO A   2      19.836  16.381  13.630  0.00  0.00    +0.094 C 
BRANCH  17  24
ATOM     24  CA  THR A   1      21.647  17.225  15.799  0.00  0.00    +0.172 C 
BRANCH  24  25
ATOM     25  CB  THR A   1      23.092  17.032  15.296  0.00  0.00    +0.135 C 
ATOM     26  CG2 THR A   1      23.954  16.251  16.277  0.00  0.00    +0.034 C 
BRANCH  25  27
ATOM     27  OG1 THR A   1      23.033  16.335  14.081  0.00  0.00    -0.383 OA
ATOM     28  HG1 THR A   1      23.951  16.198  13.736  0.00  0.00    +0.210 HD
ENDBRANCH  25  27
ENDBRANCH  24  25
BRANCH  24  29
ATOM     29  N   THR A   1      21.613  17.883  17.105  0.00  0.00    -0.236 NA
ATOM     30  H   THR A   1      22.408  17.744  17.761  0.00  0.00    +0.142 HD
ENDBRANCH  24  29
ENDBRANCH  17  24
ENDBRANCH  13  20
ENDBRANCH  11  15
ENDBRANCH   7  11
ENDBRANCH   6   8
BRANCH   6  31
ATOM     31  CB  ASN A   4      26.970  11.391  16.032  0.00  0.00    +0.114 C 
BRANCH  31  32
ATOM     32  CG  ASN A   4      26.462  11.559  17.451  0.00  0.00    +0.222 C 
ATOM     33  ND2 ASN A   4      26.492  10.442  18.155  0.00  0.00    -0.329 N 
ATOM     34 HD21 ASN A   4      26.190  10.446  19.150  0.00  0.00    +0.145 HD
ATOM     35 HD22 ASN A   4      26.818   9.558  17.714  0.00  0.00    +0.145 HD
ATOM     36  OD1 ASN A   4      26.079  12.634  17.942  0.00  0.00    -0.275 OA
ENDBRANCH  31  32
ENDBRANCH   6  31
ENDBRANCH   2   6
ENDBRANCH   1   3
BRANCH   1  37
ATOM     37  C   ILE A   5      29.589  13.720  11.851  0.00  0.00    +0.241 C 
ATOM     38  O   ILE A   5      29.996  14.683  12.489  0.00  0.00    -0.273 OA
ATOM     39  N   ILE A   6      30.361  12.886  11.150  0.00  0.00    -0.297 N 
ATOM     40  H   ILE A   6      29.957  11.989  10.813  0.00  0.00    +0.150 HD
BRANCH  39  41
ATOM     41  CA  ILE A   6      31.758  13.196  10.841  0.00  0.00    +0.149 C 
BRANCH  41  42
ATOM     42  C   ILE A   6      31.789  13.819   9.450  0.00  0.00    +0.241 C 
ATOM     43  N   GLY A   7      32.109  15.103   9.410  0.00  0.00    -0.295 N 
ATOM     44  H   GLY A   7      32.356  15.584  10.299  0.00  0.00    +0.150 HD
ATOM     45  O   ILE A   6      31.507  13.150   8.457  0.00  0.00    -0.273 OA
BRANCH  43  46
ATOM     46  CA  GLY A   7      32.129  15.865   8.179  0.00  0.00    +0.176 C 
BRANCH  46  47
ATOM     47  C   GLY A   7      33.512  15.973   7.567  0.00  0.00    +0.243 C 
ATOM     48  O   GLY A   7      34.476  15.424   8.077  0.00  0.00    -0.273 OA
ATOM     49  N   ARG A   8      33.585  16.743   6.487  0.00  0.00    -0.298 N 
ATOM     50  H   ARG A   8      32.777  17.335   6.206  0.00  0.00    +0.150 HD
BRANCH  49  51
ATOM     51  CA  ARG A   8      34.819  16.747   5.696  0.00  0.00    +0.137 C 
BRANCH  51  52
ATOM     52  C   ARG A   8      36.012  17.266   6.460  0.00  0.00    +0.227 C 
ATOM     53  O   ARG A   8      37.131  16.850   6.168  0.00  0.00    -0.286 OA
ENDBRANCH  51  52
BRANCH  51  54
ATOM     54  CB  ARG A   8      34.622  17.570   4.413  0.00  0.00    +0.031 C 
BRANCH  54  55
ATOM     55  CG  ARG A   8      33.637  16.947   3.447  0.00  0.00    +0.045 C 
BRANCH  55  56
ATOM     56  CD  ARG A   8      33.580  17.657   2.088  0.00  0.00    +0.174 C 
BRANCH  56  57
ATOM     57  NE  ARG A   8      33.162  19.044   2.269  0.00  0.00    -0.265 N 
ATOM     58  HE  ARG A   8      32.138  19.201   2.363  0.00  0.00    +0.259 HD
ATOM     59  CZ  ARG A   8      33.916  20.120   2.328  0.00  0.00    +0.342 C 
ATOM     60  NH2 ARG A   8      33.359  21.318   2.521  0.00  0.00    -0.292 N 
ATOM     61 HH21 ARG A   8      32.328  21.401   2.625  0.00  0.00    +0.255 HD
ATOM     62 HH22 ARG A   8      33.957  22.168   2.567  0.00  0.00    +0.255 HD
ATOM     63  NH1 ARG A   8      35.222  20.061   2.178  0.00  0.00    -0.292 N 
ATOM     64 HH11 ARG A   8      35.791  20.930   2.230  0.00  0.00    +0.255 HD
ATOM     65 HH12 ARG A   8      35.685  19.145   2.007  0.00  0.00    +0.255 HD
ENDBRANCH  56  57
ENDBRANCH  55  56
ENDBRANCH  54  55
ENDBRANCH  51  54
ENDBRANCH  49  51
ENDBRANCH  46  47
ENDBRANCH  43  46
ENDBRANCH  41  42
BRANCH  41  66
ATOM     66  CB  ILE A   6      32.674  11.977  10.874  0.00  0.00    +0.027 C 
ATOM     67  CG2 ILE A   6      34.133  12.329  10.603  0.00  0.00    +0.002 C 
BRANCH  66  68
ATOM     68  CG1 ILE A   6      32.554  11.184  12.168  0.00  0.00    +0.002 C 
ATOM     69  CD1 ILE A   6      32.801  11.945  13.429  0.00  0.00    +0.000 C 
ENDBRANCH  66  68
ENDBRANCH  41  66
ENDBRANCH  39  41
ENDBRANCH   1  37
BRANCH   1  70
ATOM     70  CB  ILE A   5      27.333  14.492  11.102  0.00  0.00    +0.027 C 
ATOM     71  CG2 ILE A   5      28.021  14.876   9.808  0.00  0.00    +0.002 C 
BRANCH  70  72
ATOM     72  CG1 ILE A   5      25.845  14.126  10.926  0.00  0.00    +0.002 C 
ATOM     73  CD1 ILE A   5      24.968  15.333  10.749  0.00  0.00    +0.000 C 
ENDBRANCH  70  72
ENDBRANCH   1  70
TORSDOF 27
REMARK  Name = ../refined-set-2016/1sdv/1sdv_pocket.pdb
REMARK  234 active torsions:
REMARK  status: ('A' for Active; 'I' for Inactive)
REMARK    1  A    between atoms: _1  and  _3
REMARK    2  A    between atoms: _3  and  _4
REMARK    3  A    between atoms: _3  and  _6
REMARK    4  A    between atoms: _6  and  _7
REMARK    5  A    between atoms: _7  and  _8
REMARK    6  A    between atoms: _8  and  _9
REMARK    7  A    between atoms: _18  and  _20
REMARK    8  A    between atoms: _20  and  _21
REMARK    9  A    between atoms: _20  and  _23
REMARK   10  A    between atoms: _23  and  _24
REMARK   11  A    between atoms: _27  and  _29
REMARK   12  A    between atoms: _29  and  _30
REMARK   13  A    between atoms: _29  and  _32
REMARK   14  A    between atoms: _32  and  _33
REMARK   15  A    between atoms: _36  and  _38
REMARK   16  A    between atoms: _38  and  _39
REMARK   17  A    between atoms: _38  and  _41
REMARK   18  A    between atoms: _41  and  _42
REMARK   19  A    between atoms: _45  and  _47
REMARK   20  A    between atoms: _47  and  _48
REMARK   21  A    between atoms: _47  and  _50
REMARK   22  A    between atoms: _50  and  _51
REMARK   23  A    between atoms: _54  and  _56
REMARK   24  A    between atoms: _56  and  _57
REMARK   25  A    between atoms: _56  and  _59
REMARK   26  A    between atoms: _59  and  _60
REMARK   27  A    between atoms: _63  and  _65
REMARK   28  A    between atoms: _65  and  _66
REMARK   29  A    between atoms: _68  and  _70
REMARK   30  A    between atoms: _70  and  _71
REMARK   31  A    between atoms: _74  and  _76
REMARK   32  A    between atoms: _76  and  _77
REMARK   33  A    between atoms: _76  and  _79
REMARK   34  A    between atoms: _79  and  _80
REMARK   35  A    between atoms: _83  and  _85
REMARK   36  A    between atoms: _85  and  _86
REMARK   37  A    between atoms: _85  and  _88
REMARK   38  A    between atoms: _88  and  _89
REMARK   39  A    between atoms: _92  and  _94
REMARK   40  A    between atoms: _94  and  _95
REMARK   41  A    between atoms: _94  and  _97
REMARK   42  A    between atoms: _97  and  _98
REMARK   43  A    between atoms: _101  and  _103
REMARK   44  A    between atoms: _103  and  _104
REMARK   45  A    between atoms: _103  and  _106
REMARK   46  A    between atoms: _109  and  _111
REMARK   47  A    between atoms: _111  and  _112
REMARK   48  A    between atoms: _111  and  _114
REMARK   49  A    between atoms: _114  and  _115
REMARK   50  A    between atoms: _115  and  _116
REMARK   51  A    between atoms: _116  and  _117
REMARK   52  A    between atoms: _117  and  _118
REMARK   53  A    between atoms: _122  and  _124
REMARK   54  A    between atoms: _124  and  _125
REMARK   55  A    between atoms: _124  and  _127
REMARK   56  A    between atoms: _127  and  _128
REMARK   57  A    between atoms: _128  and  _129
REMARK   58  A    between atoms: _131  and  _133
REMARK   59  A    between atoms: _133  and  _134
REMARK   60  A    between atoms: _133  and  _136
REMARK   61  A    between atoms: _136  and  _137
REMARK   62  A    between atoms: _140  and  _142
REMARK   63  A    between atoms: _142  and  _143
REMARK   64  A    between atoms: _145  and  _147
REMARK   65  A    between atoms: _147  and  _148
REMARK   66  A    between atoms: _150  and  _152
REMARK   67  A    between atoms: _152  and  _153
REMARK   68  A    between atoms: _152  and  _155
REMARK   69  A    between atoms: _155  and  _156
REMARK   70  A    between atoms: _159  and  _161
REMARK   71  A    between atoms: _161  and  _162
REMARK   72  A    between atoms: _164  and  _166
REMARK   73  A    between atoms: _166  and  _167
REMARK   74  A    between atoms: _169  and  _171
REMARK   75  A    between atoms: _171  and  _172
REMARK   76  A    between atoms: _171  and  _174
REMARK   77  A    between atoms: _174  and  _175
REMARK   78  A    between atoms: _181  and  _183
REMARK   79  A    between atoms: _183  and  _184
REMARK   80  A    between atoms: _183  and  _186
REMARK   81  A    between atoms: _186  and  _187
REMARK   82  A    between atoms: _190  and  _192
REMARK   83  A    between atoms: _192  and  _193
REMARK   84  A    between atoms: _192  and  _195
REMARK   85  A    between atoms: _198  and  _200
REMARK   86  A    between atoms: _200  and  _201
REMARK   87  A    between atoms: _200  and  _203
REMARK   88  A    between atoms: _203  and  _204
REMARK   89  A    between atoms: _207  and  _209
REMARK   90  A    between atoms: _209  and  _210
REMARK   91  A    between atoms: _209  and  _212
REMARK   92  A    between atoms: _212  and  _213
REMARK   93  A    between atoms: _217  and  _218
REMARK   94  A    between atoms: _223  and  _225
REMARK   95  A    between atoms: _225  and  _226
REMARK   96  A    between atoms: _229  and  _231
REMARK   97  A    between atoms: _231  and  _232
REMARK   98  A    between atoms: _231  and  _234
REMARK   99  A    between atoms: _234  and  _235
REMARK  100  A    between atoms: _240  and  _242
REMARK  101  A    between atoms: _242  and  _243
REMARK  102  A    between atoms: _242  and  _245
REMARK  103  A    between atoms: _245  and  _246
REMARK  104  A    between atoms: _249  and  _251
REMARK  105  A    between atoms: _251  and  _252
REMARK  106  A    between atoms: _251  and  _254
REMARK  107  A    between atoms: _254  and  _255
REMARK  108  A    between atoms: _258  and  _260
REMARK  109  A    between atoms: _260  and  _261
REMARK  110  A    between atoms: _263  and  _265
REMARK  111  A    between atoms: _265  and  _266
REMARK  112  A    between atoms: _265  and  _268
REMARK  113  A    between atoms: _268  and  _269
REMARK  114  A    between atoms: _269  and  _270
REMARK  115  A    between atoms: _270  and  _271
REMARK  116  A    between atoms: _280  and  _282
REMARK  117  A    between atoms: _282  and  _283
REMARK  118  A    between atoms: _282  and  _285
REMARK  119  A    between atoms: _285  and  _286
REMARK  120  A    between atoms: _286  and  _287
REMARK  121  A    between atoms: _287  and  _288
REMARK  122  A    between atoms: _297  and  _299
REMARK  123  A    between atoms: _299  and  _300
REMARK  124  A    between atoms: _299  and  _302
REMARK  125  A    between atoms: _302  and  _303
REMARK  126  A    between atoms: _306  and  _308
REMARK  127  A    between atoms: _308  and  _309
REMARK  128  A    between atoms: _308  and  _311
REMARK  129  A    between atoms: _311  and  _312
REMARK  130  A    between atoms: _315  and  _317
REMARK  131  A    between atoms: _317  and  _318
REMARK  132  A    between atoms: _317  and  _320
REMARK  133  A    between atoms: _320  and  _321
REMARK  134  A    between atoms: _324  and  _326
REMARK  135  A    between atoms: _326  and  _327
REMARK  136  A    between atoms: _326  and  _329
REMARK  137  A    between atoms: _329  and  _330
REMARK  138  A    between atoms: _333  and  _335
REMARK  139  A    between atoms: _335  and  _336
REMARK  140  A    between atoms: _338  and  _340
REMARK  141  A    between atoms: _340  and  _341
REMARK  142  A    between atoms: _344  and  _346
REMARK  143  A    between atoms: _346  and  _347
REMARK  144  A    between atoms: _346  and  _349
REMARK  145  A    between atoms: _349  and  _350
REMARK  146  A    between atoms: _353  and  _355
REMARK  147  A    between atoms: _355  and  _356
REMARK  148  A    between atoms: _355  and  _358
REMARK  149  A    between atoms: _358  and  _359
REMARK  150  A    between atoms: _362  and  _364
REMARK  151  A    between atoms: _364  and  _365
REMARK  152  A    between atoms: _364  and  _367
REMARK  153  A    between atoms: _367  and  _368
REMARK  154  A    between atoms: _371  and  _373
REMARK  155  A    between atoms: _373  and  _374
REMARK  156  A    between atoms: _373  and  _376
REMARK  157  A    between atoms: _379  and  _381
REMARK  158  A    between atoms: _381  and  _382
REMARK  159  A    between atoms: _381  and  _384
REMARK  160  A    between atoms: _384  and  _385
REMARK  161  A    between atoms: _388  and  _390
REMARK  162  A    between atoms: _390  and  _391
REMARK  163  A    between atoms: _390  and  _393
REMARK  164  A    between atoms: _393  and  _394
REMARK  165  A    between atoms: _394  and  _395
REMARK  166  A    between atoms: _395  and  _396
REMARK  167  A    between atoms: _396  and  _397
REMARK  168  A    between atoms: _401  and  _403
REMARK  169  A    between atoms: _403  and  _404
REMARK  170  A    between atoms: _403  and  _406
REMARK  171  A    between atoms: _406  and  _407
REMARK  172  A    between atoms: _407  and  _408
REMARK  173  A    between atoms: _410  and  _412
REMARK  174  A    between atoms: _412  and  _413
REMARK  175  A    between atoms: _412  and  _415
REMARK  176  A    between atoms: _415  and  _416
REMARK  177  A    between atoms: _419  and  _421
REMARK  178  A    between atoms: _421  and  _422
REMARK  179  A    between atoms: _424  and  _426
REMARK  180  A    between atoms: _426  and  _427
REMARK  181  A    between atoms: _429  and  _431
REMARK  182  A    between atoms: _431  and  _432
REMARK  183  A    between atoms: _431  and  _434
REMARK  184  A    between atoms: _434  and  _435
REMARK  185  A    between atoms: _438  and  _440
REMARK  186  A    between atoms: _440  and  _441
REMARK  187  A    between atoms: _443  and  _445
REMARK  188  A    between atoms: _445  and  _446
REMARK  189  A    between atoms: _448  and  _450
REMARK  190  A    between atoms: _450  and  _451
REMARK  191  A    between atoms: _450  and  _453
REMARK  192  A    between atoms: _453  and  _454
REMARK  193  A    between atoms: _460  and  _462
REMARK  194  A    between atoms: _462  and  _463
REMARK  195  A    between atoms: _462  and  _465
REMARK  196  A    between atoms: _465  and  _466
REMARK  197  A    between atoms: _469  and  _471
REMARK  198  A    between atoms: _471  and  _472
REMARK  199  A    between atoms: _471  and  _474
REMARK  200  A    between atoms: _477  and  _479
REMARK  201  A    between atoms: _479  and  _480
REMARK  202  A    between atoms: _479  and  _482
REMARK  203  A    between atoms: _482  and  _483
REMARK  204  A    between atoms: _486  and  _488
REMARK  205  A    between atoms: _488  and  _489
REMARK  206  A    between atoms: _488  and  _491
REMARK  207  A    between atoms: _491  and  _492
REMARK  208  A    between atoms: _496  and  _497
REMARK  209  A    between atoms: _502  and  _504
REMARK  210  A    between atoms: _504  and  _505
REMARK  211  A    between atoms: _508  and  _510
REMARK  212  A    between atoms: _510  and  _511
REMARK  213  A    between atoms: _510  and  _513
REMARK  214  A    between atoms: _513  and  _514
REMARK  215  A    between atoms: _519  and  _521
REMARK  216  A    between atoms: _521  and  _522
REMARK  217  A    between atoms: _521  and  _524
REMARK  218  A    between atoms: _524  and  _525
REMARK  219  A    between atoms: _528  and  _530
REMARK  220  A    between atoms: _530  and  _531
REMARK  221  A    between atoms: _530  and  _533
REMARK  222  A    between atoms: _533  and  _534
REMARK  223  A    between atoms: _537  and  _539
REMARK  224  A    between atoms: _539  and  _540
REMARK  225  A    between atoms: _542  and  _544
REMARK  226  A    between atoms: _544  and  _545
REMARK  227  A    between atoms: _544  and  _547
REMARK  228  A    between atoms: _547  and  _548
REMARK  229  A    between atoms: _548  and  _549
REMARK  230  A    between atoms: _549  and  _550
REMARK  231  A    between atoms: _559  and  _561
REMARK  232  A    between atoms: _561  and  _562
REMARK  233  A    between atoms: _561  and  _564
REMARK  234  A    between atoms: _564  and  _565
REMARK                            x       y       z     vdW  Elec       q    Type
REMARK                         _______ _______ _______ _____ _____    ______ ____
ROOT
ATOM      1  NE  ARG A   1      29.525  22.834   0.733  0.00  0.00    -0.265 N 
ATOM      2  HE  ARG A   1      29.903  22.455   1.625  0.00  0.00    +0.259 HD
ATOM      3  CZ  ARG A   1      28.654  23.830   0.809  0.00  0.00    +0.342 C 
ATOM      4  NH2 ARG A   1      28.316  24.283   2.008  0.00  0.00    -0.292 N 
ATOM      5 HH21 ARG A   1      28.732  23.858   2.861  0.00  0.00    +0.255 HD
ATOM      6 HH22 ARG A   1      27.635  25.064   2.096  0.00  0.00    +0.255 HD
ATOM      7  NH1 ARG A   1      28.157  24.331  -0.304  0.00  0.00    -0.292 N 
ATOM      8 HH11 ARG A   1      27.472  25.113  -0.262  0.00  0.00    +0.255 HD
ATOM      9 HH12 ARG A   1      28.449  23.945  -1.224  0.00  0.00    +0.255 HD
ENDROOT
BRANCH   1  10
ATOM     10  CD  ARG A   1      29.992  22.231  -0.511  0.00  0.00    +0.174 C 
BRANCH  10  11
ATOM     11  CG  ARG A   1      31.242  21.386  -0.291  0.00  0.00    +0.045 C 
BRANCH  11  12
ATOM     12  CB  ARG A   1      31.609  20.720  -1.606  0.00  0.00    +0.029 C 
BRANCH  12  13
ATOM     13  CA  ARG A   1      32.821  19.771  -1.453  0.00  0.00    +0.133 C 
BRANCH  13  14
ATOM     14  N   ARG A   1      34.042  20.530  -1.266  0.00  0.00    -0.239 NA
ATOM     15  H   ARG A   1      34.014  21.570  -1.271  0.00  0.00    +0.142 HD
ENDBRANCH  13  14
BRANCH  13  16
ATOM     16  C   ARG A   1      32.921  18.890  -2.666  0.00  0.00    +0.224 C 
ATOM     17  O   ARG A   1      33.383  19.293  -3.720  0.00  0.00    -0.287 OA
ENDBRANCH  13  16
ENDBRANCH  12  13
ENDBRANCH  11  12
ENDBRANCH  10  11
ENDBRANCH   1  10
TORSDOF 6
REMARK  Name = ../refined-set-2016/1sdv/1sdv_pocket.pdb
REMARK  234 active torsions:
REMARK  status: ('A' for Active; 'I' for Inactive)
REMARK    1  A    between atoms: _1  and  _3
REMARK    2  A    between atoms: _3  and  _4
REMARK    3  A    between atoms: _3  and  _6
REMARK    4  A    between atoms: _6  and  _7
REMARK    5  A    between atoms: _7  and  _8
REMARK    6  A    between atoms: _8  and  _9
REMARK    7  A    between atoms: _18  and  _20
REMARK    8  A    between atoms: _20  and  _21
REMARK    9  A    between atoms: _20  and  _23
REMARK   10  A    between atoms: _23  and  _24
REMARK   11  A    between atoms: _27  and  _29
REMARK   12  A    between atoms: _29  and  _30
REMARK   13  A    between atoms: _29  and  _32
REMARK   14  A    between atoms: _32  and  _33
REMARK   15  A    between atoms: _36  and  _38
REMARK   16  A    between atoms: _38  and  _39
REMARK   17  A    between atoms: _38  and  _41
REMARK   18  A    between atoms: _41  and  _42
REMARK   19  A    between atoms: _45  and  _47
REMARK   20  A    between atoms: _47  and  _48
REMARK   21  A    between atoms: _47  and  _50
REMARK   22  A    between atoms: _50  and  _51
REMARK   23  A    between atoms: _54  and  _56
REMARK   24  A    between atoms: _56  and  _57
REMARK   25  A    between atoms: _56  and  _59
REMARK   26  A    between atoms: _59  and  _60
REMARK   27  A    between atoms: _63  and  _65
REMARK   28  A    between atoms: _65  and  _66
REMARK   29  A    between atoms: _68  and  _70
REMARK   30  A    between atoms: _70  and  _71
REMARK   31  A    between atoms: _74  and  _76
REMARK   32  A    between atoms: _76  and  _77
REMARK   33  A    between atoms: _76  and  _79
REMARK   34  A    between atoms: _79  and  _80
REMARK   35  A    between atoms: _83  and  _85
REMARK   36  A    between atoms: _85  and  _86
REMARK   37  A    between atoms: _85  and  _88
REMARK   38  A    between atoms: _88  and  _89
REMARK   39  A    between atoms: _92  and  _94
REMARK   40  A    between atoms: _94  and  _95
REMARK   41  A    between atoms: _94  and  _97
REMARK   42  A    between atoms: _97  and  _98
REMARK   43  A    between atoms: _101  and  _103
REMARK   44  A    between atoms: _103  and  _104
REMARK   45  A    between atoms: _103  and  _106
REMARK   46  A    between atoms: _109  and  _111
REMARK   47  A    between atoms: _111  and  _112
REMARK   48  A    between atoms: _111  and  _114
REMARK   49  A    between atoms: _114  and  _115
REMARK   50  A    between atoms: _115  and  _116
REMARK   51  A    between atoms: _116  and  _117
REMARK   52  A    between atoms: _117  and  _118
REMARK   53  A    between atoms: _122  and  _124
REMARK   54  A    between atoms: _124  and  _125
REMARK   55  A    between atoms: _124  and  _127
REMARK   56  A    between atoms: _127  and  _128
REMARK   57  A    between atoms: _128  and  _129
REMARK   58  A    between atoms: _131  and  _133
REMARK   59  A    between atoms: _133  and  _134
REMARK   60  A    between atoms: _133  and  _136
REMARK   61  A    between atoms: _136  and  _137
REMARK   62  A    between atoms: _140  and  _142
REMARK   63  A    between atoms: _142  and  _143
REMARK   64  A    between atoms: _145  and  _147
REMARK   65  A    between atoms: _147  and  _148
REMARK   66  A    between atoms: _150  and  _152
REMARK   67  A    between atoms: _152  and  _153
REMARK   68  A    between atoms: _152  and  _155
REMARK   69  A    between atoms: _155  and  _156
REMARK   70  A    between atoms: _159  and  _161
REMARK   71  A    between atoms: _161  and  _162
REMARK   72  A    between atoms: _164  and  _166
REMARK   73  A    between atoms: _166  and  _167
REMARK   74  A    between atoms: _169  and  _171
REMARK   75  A    between atoms: _171  and  _172
REMARK   76  A    between atoms: _171  and  _174
REMARK   77  A    between atoms: _174  and  _175
REMARK   78  A    between atoms: _181  and  _183
REMARK   79  A    between atoms: _183  and  _184
REMARK   80  A    between atoms: _183  and  _186
REMARK   81  A    between atoms: _186  and  _187
REMARK   82  A    between atoms: _190  and  _192
REMARK   83  A    between atoms: _192  and  _193
REMARK   84  A    between atoms: _192  and  _195
REMARK   85  A    between atoms: _198  and  _200
REMARK   86  A    between atoms: _200  and  _201
REMARK   87  A    between atoms: _200  and  _203
REMARK   88  A    between atoms: _203  and  _204
REMARK   89  A    between atoms: _207  and  _209
REMARK   90  A    between atoms: _209  and  _210
REMARK   91  A    between atoms: _209  and  _212
REMARK   92  A    between atoms: _212  and  _213
REMARK   93  A    between atoms: _217  and  _218
REMARK   94  A    between atoms: _223  and  _225
REMARK   95  A    between atoms: _225  and  _226
REMARK   96  A    between atoms: _229  and  _231
REMARK   97  A    between atoms: _231  and  _232
REMARK   98  A    between atoms: _231  and  _234
REMARK   99  A    between atoms: _234  and  _235
REMARK  100  A    between atoms: _240  and  _242
REMARK  101  A    between atoms: _242  and  _243
REMARK  102  A    between atoms: _242  and  _245
REMARK  103  A    between atoms: _245  and  _246
REMARK  104  A    between atoms: _249  and  _251
REMARK  105  A    between atoms: _251  and  _252
REMARK  106  A    between atoms: _251  and  _254
REMARK  107  A    between atoms: _254  and  _255
REMARK  108  A    between atoms: _258  and  _260
REMARK  109  A    between atoms: _260  and  _261
REMARK  110  A    between atoms: _263  and  _265
REMARK  111  A    between atoms: _265  and  _266
REMARK  112  A    between atoms: _265  and  _268
REMARK  113  A    between atoms: _268  and  _269
REMARK  114  A    between atoms: _269  and  _270
REMARK  115  A    between atoms: _270  and  _271
REMARK  116  A    between atoms: _280  and  _282
REMARK  117  A    between atoms: _282  and  _283
REMARK  118  A    between atoms: _282  and  _285
REMARK  119  A    between atoms: _285  and  _286
REMARK  120  A    between atoms: _286  and  _287
REMARK  121  A    between atoms: _287  and  _288
REMARK  122  A    between atoms: _297  and  _299
REMARK  123  A    between atoms: _299  and  _300
REMARK  124  A    between atoms: _299  and  _302
REMARK  125  A    between atoms: _302  and  _303
REMARK  126  A    between atoms: _306  and  _308
REMARK  127  A    between atoms: _308  and  _309
REMARK  128  A    between atoms: _308  and  _311
REMARK  129  A    between atoms: _311  and  _312
REMARK  130  A    between atoms: _315  and  _317
REMARK  131  A    between atoms: _317  and  _318
REMARK  132  A    between atoms: _317  and  _320
REMARK  133  A    between atoms: _320  and  _321
REMARK  134  A    between atoms: _324  and  _326
REMARK  135  A    between atoms: _326  and  _327
REMARK  136  A    between atoms: _326  and  _329
REMARK  137  A    between atoms: _329  and  _330
REMARK  138  A    between atoms: _333  and  _335
REMARK  139  A    between atoms: _335  and  _336
REMARK  140  A    between atoms: _338  and  _340
REMARK  141  A    between atoms: _340  and  _341
REMARK  142  A    between atoms: _344  and  _346
REMARK  143  A    between atoms: _346  and  _347
REMARK  144  A    between atoms: _346  and  _349
REMARK  145  A    between atoms: _349  and  _350
REMARK  146  A    between atoms: _353  and  _355
REMARK  147  A    between atoms: _355  and  _356
REMARK  148  A    between atoms: _355  and  _358
REMARK  149  A    between atoms: _358  and  _359
REMARK  150  A    between atoms: _362  and  _364
REMARK  151  A    between atoms: _364  and  _365
REMARK  152  A    between atoms: _364  and  _367
REMARK  153  A    between atoms: _367  and  _368
REMARK  154  A    between atoms: _371  and  _373
REMARK  155  A    between atoms: _373  and  _374
REMARK  156  A    between atoms: _373  and  _376
REMARK  157  A    between atoms: _379  and  _381
REMARK  158  A    between atoms: _381  and  _382
REMARK  159  A    between atoms: _381  and  _384
REMARK  160  A    between atoms: _384  and  _385
REMARK  161  A    between atoms: _388  and  _390
REMARK  162  A    between atoms: _390  and  _391
REMARK  163  A    between atoms: _390  and  _393
REMARK  164  A    between atoms: _393  and  _394
REMARK  165  A    between atoms: _394  and  _395
REMARK  166  A    between atoms: _395  and  _396
REMARK  167  A    between atoms: _396  and  _397
REMARK  168  A    between atoms: _401  and  _403
REMARK  169  A    between atoms: _403  and  _404
REMARK  170  A    between atoms: _403  and  _406
REMARK  171  A    between atoms: _406  and  _407
REMARK  172  A    between atoms: _407  and  _408
REMARK  173  A    between atoms: _410  and  _412
REMARK  174  A    between atoms: _412  and  _413
REMARK  175  A    between atoms: _412  and  _415
REMARK  176  A    between atoms: _415  and  _416
REMARK  177  A    between atoms: _419  and  _421
REMARK  178  A    between atoms: _421  and  _422
REMARK  179  A    between atoms: _424  and  _426
REMARK  180  A    between atoms: _426  and  _427
REMARK  181  A    between atoms: _429  and  _431
REMARK  182  A    between atoms: _431  and  _432
REMARK  183  A    between atoms: _431  and  _434
REMARK  184  A    between atoms: _434  and  _435
REMARK  185  A    between atoms: _438  and  _440
REMARK  186  A    between atoms: _440  and  _441
REMARK  187  A    between atoms: _443  and  _445
REMARK  188  A    between atoms: _445  and  _446
REMARK  189  A    between atoms: _448  and  _450
REMARK  190  A    between atoms: _450  and  _451
REMARK  191  A    between atoms: _450  and  _453
REMARK  192  A    between atoms: _453  and  _454
REMARK  193  A    between atoms: _460  and  _462
REMARK  194  A    between atoms: _462  and  _463
REMARK  195  A    between atoms: _462  and  _465
REMARK  196  A    between atoms: _465  and  _466
REMARK  197  A    between atoms: _469  and  _471
REMARK  198  A    between atoms: _471  and  _472
REMARK  199  A    between atoms: _471  and  _474
REMARK  200  A    between atoms: _477  and  _479
REMARK  201  A    between atoms: _479  and  _480
REMARK  202  A    between atoms: _479  and  _482
REMARK  203  A    between atoms: _482  and  _483
REMARK  204  A    between atoms: _486  and  _488
REMARK  205  A    between atoms: _488  and  _489
REMARK  206  A    between atoms: _488  and  _491
REMARK  207  A    between atoms: _491  and  _492
REMARK  208  A    between atoms: _496  and  _497
REMARK  209  A    between atoms: _502  and  _504
REMARK  210  A    between atoms: _504  and  _505
REMARK  211  A    between atoms: _508  and  _510
REMARK  212  A    between atoms: _510  and  _511
REMARK  213  A    between atoms: _510  and  _513
REMARK  214  A    between atoms: _513  and  _514
REMARK  215  A    between atoms: _519  and  _521
REMARK  216  A    between atoms: _521  and  _522
REMARK  217  A    between atoms: _521  and  _524
REMARK  218  A    between atoms: _524  and  _525
REMARK  219  A    between atoms: _528  and  _530
REMARK  220  A    between atoms: _530  and  _531
REMARK  221  A    between atoms: _530  and  _533
REMARK  222  A    between atoms: _533  and  _534
REMARK  223  A    between atoms: _537  and  _539
REMARK  224  A    between atoms: _539  and  _540
REMARK  225  A    between atoms: _542  and  _544
REMARK  226  A    between atoms: _544  and  _545
REMARK  227  A    between atoms: _544  and  _547
REMARK  228  A    between atoms: _547  and  _548
REMARK  229  A    between atoms: _548  and  _549
REMARK  230  A    between atoms: _549  and  _550
REMARK  231  A    between atoms: _559  and  _561
REMARK  232  A    between atoms: _561  and  _562
REMARK  233  A    between atoms: _561  and  _564
REMARK  234  A    between atoms: _564  and  _565
REMARK                            x       y       z     vdW  Elec       q    Type
REMARK                         _______ _______ _______ _____ _____    ______ ____
ROOT
ATOM      1  C   ALA A   6      21.560   9.854   2.159  0.00  0.00    +0.241 C 
ATOM      2  N   ASP A   7      20.441   9.413   2.719  0.00  0.00    -0.297 N 
ATOM      3  H   ASP A   7      19.979   9.987   3.453  0.00  0.00    +0.150 HD
ATOM      4  O   ALA A   6      22.147   9.178   1.307  0.00  0.00    -0.273 OA
ENDROOT
BRANCH   1   5
ATOM      5  CA  ALA A   6      22.091  11.217   2.558  0.00  0.00    +0.149 C 
ATOM      6  CB  ALA A   6      22.031  12.197   1.377  0.00  0.00    +0.031 C 
BRANCH   5   9
ATOM      7  C   GLY A   5      23.745  11.095   4.348  0.00  0.00    +0.243 C 
ATOM      8  O   GLY A   5      22.898  11.143   5.258  0.00  0.00    -0.273 OA
ATOM      9  N   ALA A   6      23.457  11.117   3.050  0.00  0.00    -0.297 N 
ATOM     10  H   ALA A   6      24.235  11.061   2.362  0.00  0.00    +0.150 HD
BRANCH   7  11
ATOM     11  CA  GLY A   5      25.198  11.001   4.750  0.00  0.00    +0.176 C 
BRANCH  11  13
ATOM     12  C   THR A   4      26.395   9.629   3.094  0.00  0.00    +0.243 C 
ATOM     13  N   GLY A   5      26.118  10.815   3.613  0.00  0.00    -0.295 N 
ATOM     14  H   GLY A   5      26.571  11.655   3.199  0.00  0.00    +0.150 HD
ATOM     15  O   THR A   4      25.942   8.566   3.543  0.00  0.00    -0.273 OA
BRANCH  12  16
ATOM     16  CA  THR A   4      27.280   9.573   1.867  0.00  0.00    +0.176 C 
BRANCH  16  18
ATOM     17  C   ASP A   3      26.394  11.428   0.561  0.00  0.00    +0.241 C 
ATOM     18  N   THR A   4      27.426  10.847   1.188  0.00  0.00    -0.295 N 
ATOM     19  H   THR A   4      28.352  11.320   1.188  0.00  0.00    +0.150 HD
ATOM     20  O   ASP A   3      25.271  10.909   0.545  0.00  0.00    -0.273 OA
BRANCH  17  21
ATOM     21  CA  ASP A   3      26.651  12.769  -0.102  0.00  0.00    +0.160 C 
BRANCH  21  24
ATOM     22  C   LEU A   2      27.991  13.207  -2.083  0.00  0.00    +0.241 C 
ATOM     23  O   LEU A   2      28.973  13.602  -1.452  0.00  0.00    -0.273 OA
ATOM     24  N   ASP A   3      26.906  12.672  -1.539  0.00  0.00    -0.297 N 
ATOM     25  H   ASP A   3      26.224  12.174  -2.146  0.00  0.00    +0.150 HD
BRANCH  22  26
ATOM     26  CA  LEU A   2      27.982  13.349  -3.590  0.00  0.00    +0.149 C 
BRANCH  26  29
ATOM     27  C   LEU A   1      26.802  15.454  -3.853  0.00  0.00    +0.238 C 
ATOM     28  O   LEU A   1      25.709  14.933  -3.590  0.00  0.00    -0.274 OA
ATOM     29  N   LEU A   2      27.924  14.763  -3.935  0.00  0.00    -0.297 N 
ATOM     30  H   LEU A   2      28.790  15.241  -4.255  0.00  0.00    +0.150 HD
BRANCH  27  31
ATOM     31  CA  LEU A   1      26.825  16.949  -4.080  0.00  0.00    +0.145 C 
BRANCH  31  32
ATOM     32  N   LEU A   1      25.941  17.353  -5.151  0.00  0.00    -0.238 NA
ATOM     33  H   LEU A   1      24.945  17.529  -4.908  0.00  0.00    +0.142 HD
ENDBRANCH  31  32
BRANCH  31  34
ATOM     34  CB  LEU A   1      26.387  17.708  -2.822  0.00  0.00    +0.026 C 
BRANCH  34  35
ATOM     35  CG  LEU A   1      27.184  17.555  -1.558  0.00  0.00    +0.002 C 
ATOM     36  CD2 LEU A   1      26.464  18.195  -0.391  0.00  0.00    +0.000 C 
ATOM     37  CD1 LEU A   1      28.559  18.186  -1.716  0.00  0.00    +0.000 C 
ENDBRANCH  34  35
ENDBRANCH  31  34
ENDBRANCH  27  31
ENDBRANCH  26  29
BRANCH  26  38
ATOM     38  CB  LEU A   2      29.216  12.682  -4.194  0.00  0.00    +0.029 C 
BRANCH  38  39
ATOM     39  CG  LEU A   2      29.308  12.767  -5.733  0.00  0.00    +0.002 C 
ATOM     40  CD2 LEU A   2      30.539  12.002  -6.191  0.00  0.00    +0.000 C 
ATOM     41  CD1 LEU A   2      28.038  12.261  -6.373  0.00  0.00    +0.000 C 
ENDBRANCH  38  39
ENDBRANCH  26  38
ENDBRANCH  22  26
ENDBRANCH  21  24
BRANCH  21  42
ATOM     42  CB  ASP A   3      25.432  13.668   0.095  0.00  0.00    +0.143 C 
BRANCH  42  43
ATOM     43  CG  ASP A   3      25.212  14.049   1.558  0.00  0.00    +0.367 C 
ATOM     44  OD2 ASP A   3      25.942  13.480   2.400  0.00  0.00    -0.246 OA
ATOM     45  OD1 ASP A   3      24.347  14.908   1.801  0.00  0.00    -0.246 OA
ENDBRANCH  42  43
ENDBRANCH  21  42
ENDBRANCH  17  21
ENDBRANCH  16  18
BRANCH  16  46
ATOM     46  CB  THR A   4      28.636   8.975   2.273  0.00  0.00    +0.137 C 
ATOM     47  CG2 THR A   4      29.519   8.756   1.039  0.00  0.00    +0.034 C 
BRANCH  46  48
ATOM     48  OG1 THR A   4      29.310   9.889   3.139  0.00  0.00    -0.382 OA
ATOM     49  HG1 THR A   4      28.759  10.044   3.947  0.00  0.00    +0.210 HD
ENDBRANCH  46  48
ENDBRANCH  16  46
ENDBRANCH  12  16
ENDBRANCH  11  13
ENDBRANCH   7  11
ENDBRANCH   5   9
ENDBRANCH   1   5
BRANCH   2  50
ATOM     50  CA  ASP A   7      19.849   8.149   2.330  0.00  0.00    +0.160 C 
BRANCH  50  51
ATOM     51  C   ASP A   7      19.359   8.163   0.884  0.00  0.00    +0.241 C 
ATOM     52  N   ASP A   8      18.853   9.301   0.453  0.00  0.00    -0.297 N 
ATOM     53  H   ASP A   8      18.980  10.145   1.048  0.00  0.00    +0.150 HD
ATOM     54  O   ASP A   7      19.449   7.131   0.198  0.00  0.00    -0.273 OA
BRANCH  52  55
ATOM     55  CA  ASP A   8      18.127   9.457  -0.801  0.00  0.00    +0.160 C 
BRANCH  55  56
ATOM     56  C   ASP A   8      18.748  10.595  -1.602  0.00  0.00    +0.241 C 
ATOM     57  O   ASP A   8      19.597  11.322  -1.095  0.00  0.00    -0.273 OA
ATOM     58  N   THR A   9      18.293  10.733  -2.834  0.00  0.00    -0.295 N 
ATOM     59  H   THR A   9      17.569  10.058  -3.152  0.00  0.00    +0.150 HD
BRANCH  58  60
ATOM     60  CA  THR A   9      18.716  11.743  -3.778  0.00  0.00    +0.176 C 
BRANCH  60  61
ATOM     61  C   THR A   9      17.619  12.787  -3.910  0.00  0.00    +0.243 C 
ATOM     62  N   VAL A  10      17.984  14.047  -3.730  0.00  0.00    -0.297 N 
ATOM     63  H   VAL A  10      18.976  14.274  -3.516  0.00  0.00    +0.150 HD
ATOM     64  O   THR A   9      16.484  12.420  -4.214  0.00  0.00    -0.273 OA
BRANCH  62  65
ATOM     65  CA  VAL A  10      16.995  15.122  -3.831  0.00  0.00    +0.149 C 
BRANCH  65  66
ATOM     66  C   VAL A  10      17.559  16.261  -4.661  0.00  0.00    +0.241 C 
ATOM     67  O   VAL A  10      18.699  16.674  -4.458  0.00  0.00    -0.273 OA
ATOM     68  N   ILE A  11      16.704  16.739  -5.567  0.00  0.00    -0.298 N 
ATOM     69  H   ILE A  11      15.750  16.326  -5.605  0.00  0.00    +0.150 HD
BRANCH  68  70
ATOM     70  CA  ILE A  11      17.030  17.814  -6.515  0.00  0.00    +0.137 C 
BRANCH  70  71
ATOM     71  CB  ILE A  11      17.007  17.251  -7.950  0.00  0.00    +0.026 C 
ATOM     72  CG2 ILE A  11      17.362  18.251  -9.041  0.00  0.00    +0.002 C 
BRANCH  71  73
ATOM     73  CG1 ILE A  11      17.889  15.973  -8.060  0.00  0.00    +0.002 C 
ATOM     74  CD1 ILE A  11      19.328  16.214  -7.778  0.00  0.00    +0.000 C 
ENDBRANCH  71  73
ENDBRANCH  70  71
BRANCH  70  75
ATOM     75  C   ILE A  11      16.059  18.986  -6.366  0.00  0.00    +0.227 C 
ATOM     76  O   ILE A  11      14.899  18.814  -5.976  0.00  0.00    -0.286 OA
ENDBRANCH  70  75
ENDBRANCH  68  70
ENDBRANCH  65  66
BRANCH  65  77
ATOM     77  CB  VAL A  10      16.497  15.542  -2.448  0.00  0.00    +0.027 C 
ATOM     78  CG2 VAL A  10      17.626  16.055  -1.573  0.00  0.00    +0.002 C 
ATOM     79  CG1 VAL A  10      15.395  16.597  -2.546  0.00  0.00    +0.002 C 
ENDBRANCH  65  77
ENDBRANCH  62  65
ENDBRANCH  60  61
BRANCH  60  80
ATOM     80  CB  THR A   9      18.983  11.054  -5.129  0.00  0.00    +0.137 C 
ATOM     81  CG2 THR A   9      19.234  12.055  -6.238  0.00  0.00    +0.034 C 
BRANCH  80  82
ATOM     82  OG1 THR A   9      20.126  10.185  -4.953  0.00  0.00    -0.382 OA
ATOM     83  HG1 THR A   9      19.924   9.513  -4.255  0.00  0.00    +0.210 HD
ENDBRANCH  80  82
ENDBRANCH  60  80
ENDBRANCH  58  60
ENDBRANCH  55  56
BRANCH  55  84
ATOM     84  CB  ASP A   8      16.666   9.797  -0.535  0.00  0.00    +0.143 C 
BRANCH  84  85
ATOM     85  CG  ASP A   8      15.952   8.938   0.486  0.00  0.00    +0.367 C 
ATOM     86  OD2 ASP A   8      15.391   9.484   1.464  0.00  0.00    -0.246 OA
ATOM     87  OD1 ASP A   8      15.971   7.710   0.265  0.00  0.00    -0.246 OA
ENDBRANCH  84  85
ENDBRANCH  55  84
ENDBRANCH  52  55
ENDBRANCH  50  51
BRANCH  50  88
ATOM     88  CB  ASP A   7      18.676   7.781   3.254  0.00  0.00    +0.143 C 
BRANCH  88  89
ATOM     89  CG  ASP A   7      19.053   7.608   4.698  0.00  0.00    +0.367 C 
ATOM     90  OD2 ASP A   7      18.143   7.883   5.518  0.00  0.00    -0.246 OA
ATOM     91  OD1 ASP A   7      20.195   7.217   5.014  0.00  0.00    -0.246 OA
ENDBRANCH  88  89
ENDBRANCH  50  88
ENDBRANCH   2  50
TORSDOF 39
REMARK  Name = ../refined-set-2016/1sdv/1sdv_pocket.pdb
REMARK  234 active torsions:
REMARK  status: ('A' for Active; 'I' for Inactive)
REMARK    1  A    between atoms: _1  and  _3
REMARK    2  A    between atoms: _3  and  _4
REMARK    3  A    between atoms: _3  and  _6
REMARK    4  A    between atoms: _6  and  _7
REMARK    5  A    between atoms: _7  and  _8
REMARK    6  A    between atoms: _8  and  _9
REMARK    7  A    between atoms: _18  and  _20
REMARK    8  A    between atoms: _20  and  _21
REMARK    9  A    between atoms: _20  and  _23
REMARK   10  A    between atoms: _23  and  _24
REMARK   11  A    between atoms: _27  and  _29
REMARK   12  A    between atoms: _29  and  _30
REMARK   13  A    between atoms: _29  and  _32
REMARK   14  A    between atoms: _32  and  _33
REMARK   15  A    between atoms: _36  and  _38
REMARK   16  A    between atoms: _38  and  _39
REMARK   17  A    between atoms: _38  and  _41
REMARK   18  A    between atoms: _41  and  _42
REMARK   19  A    between atoms: _45  and  _47
REMARK   20  A    between atoms: _47  and  _48
REMARK   21  A    between atoms: _47  and  _50
REMARK   22  A    between atoms: _50  and  _51
REMARK   23  A    between atoms: _54  and  _56
REMARK   24  A    between atoms: _56  and  _57
REMARK   25  A    between atoms: _56  and  _59
REMARK   26  A    between atoms: _59  and  _60
REMARK   27  A    between atoms: _63  and  _65
REMARK   28  A    between atoms: _65  and  _66
REMARK   29  A    between atoms: _68  and  _70
REMARK   30  A    between atoms: _70  and  _71
REMARK   31  A    between atoms: _74  and  _76
REMARK   32  A    between atoms: _76  and  _77
REMARK   33  A    between atoms: _76  and  _79
REMARK   34  A    between atoms: _79  and  _80
REMARK   35  A    between atoms: _83  and  _85
REMARK   36  A    between atoms: _85  and  _86
REMARK   37  A    between atoms: _85  and  _88
REMARK   38  A    between atoms: _88  and  _89
REMARK   39  A    between atoms: _92  and  _94
REMARK   40  A    between atoms: _94  and  _95
REMARK   41  A    between atoms: _94  and  _97
REMARK   42  A    between atoms: _97  and  _98
REMARK   43  A    between atoms: _101  and  _103
REMARK   44  A    between atoms: _103  and  _104
REMARK   45  A    between atoms: _103  and  _106
REMARK   46  A    between atoms: _109  and  _111
REMARK   47  A    between atoms: _111  and  _112
REMARK   48  A    between atoms: _111  and  _114
REMARK   49  A    between atoms: _114  and  _115
REMARK   50  A    between atoms: _115  and  _116
REMARK   51  A    between atoms: _116  and  _117
REMARK   52  A    between atoms: _117  and  _118
REMARK   53  A    between atoms: _122  and  _124
REMARK   54  A    between atoms: _124  and  _125
REMARK   55  A    between atoms: _124  and  _127
REMARK   56  A    between atoms: _127  and  _128
REMARK   57  A    between atoms: _128  and  _129
REMARK   58  A    between atoms: _131  and  _133
REMARK   59  A    between atoms: _133  and  _134
REMARK   60  A    between atoms: _133  and  _136
REMARK   61  A    between atoms: _136  and  _137
REMARK   62  A    between atoms: _140  and  _142
REMARK   63  A    between atoms: _142  and  _143
REMARK   64  A    between atoms: _145  and  _147
REMARK   65  A    between atoms: _147  and  _148
REMARK   66  A    between atoms: _150  and  _152
REMARK   67  A    between atoms: _152  and  _153
REMARK   68  A    between atoms: _152  and  _155
REMARK   69  A    between atoms: _155  and  _156
REMARK   70  A    between atoms: _159  and  _161
REMARK   71  A    between atoms: _161  and  _162
REMARK   72  A    between atoms: _164  and  _166
REMARK   73  A    between atoms: _166  and  _167
REMARK   74  A    between atoms: _169  and  _171
REMARK   75  A    between atoms: _171  and  _172
REMARK   76  A    between atoms: _171  and  _174
REMARK   77  A    between atoms: _174  and  _175
REMARK   78  A    between atoms: _181  and  _183
REMARK   79  A    between atoms: _183  and  _184
REMARK   80  A    between atoms: _183  and  _186
REMARK   81  A    between atoms: _186  and  _187
REMARK   82  A    between atoms: _190  and  _192
REMARK   83  A    between atoms: _192  and  _193
REMARK   84  A    between atoms: _192  and  _195
REMARK   85  A    between atoms: _198  and  _200
REMARK   86  A    between atoms: _200  and  _201
REMARK   87  A    between atoms: _200  and  _203
REMARK   88  A    between atoms: _203  and  _204
REMARK   89  A    between atoms: _207  and  _209
REMARK   90  A    between atoms: _209  and  _210
REMARK   91  A    between atoms: _209  and  _212
REMARK   92  A    between atoms: _212  and  _213
REMARK   93  A    between atoms: _217  and  _218
REMARK   94  A    between atoms: _223  and  _225
REMARK   95  A    between atoms: _225  and  _226
REMARK   96  A    between atoms: _229  and  _231
REMARK   97  A    between atoms: _231  and  _232
REMARK   98  A    between atoms: _231  and  _234
REMARK   99  A    between atoms: _234  and  _235
REMARK  100  A    between atoms: _240  and  _242
REMARK  101  A    between atoms: _242  and  _243
REMARK  102  A    between atoms: _242  and  _245
REMARK  103  A    between atoms: _245  and  _246
REMARK  104  A    between atoms: _249  and  _251
REMARK  105  A    between atoms: _251  and  _252
REMARK  106  A    between atoms: _251  and  _254
REMARK  107  A    between atoms: _254  and  _255
REMARK  108  A    between atoms: _258  and  _260
REMARK  109  A    between atoms: _260  and  _261
REMARK  110  A    between atoms: _263  and  _265
REMARK  111  A    between atoms: _265  and  _266
REMARK  112  A    between atoms: _265  and  _268
REMARK  113  A    between atoms: _268  and  _269
REMARK  114  A    between atoms: _269  and  _270
REMARK  115  A    between atoms: _270  and  _271
REMARK  116  A    between atoms: _280  and  _282
REMARK  117  A    between atoms: _282  and  _283
REMARK  118  A    between atoms: _282  and  _285
REMARK  119  A    between atoms: _285  and  _286
REMARK  120  A    between atoms: _286  and  _287
REMARK  121  A    between atoms: _287  and  _288
REMARK  122  A    between atoms: _297  and  _299
REMARK  123  A    between atoms: _299  and  _300
REMARK  124  A    between atoms: _299  and  _302
REMARK  125  A    between atoms: _302  and  _303
REMARK  126  A    between atoms: _306  and  _308
REMARK  127  A    between atoms: _308  and  _309
REMARK  128  A    between atoms: _308  and  _311
REMARK  129  A    between atoms: _311  and  _312
REMARK  130  A    between atoms: _315  and  _317
REMARK  131  A    between atoms: _317  and  _318
REMARK  132  A    between atoms: _317  and  _320
REMARK  133  A    between atoms: _320  and  _321
REMARK  134  A    between atoms: _324  and  _326
REMARK  135  A    between atoms: _326  and  _327
REMARK  136  A    between atoms: _326  and  _329
REMARK  137  A    between atoms: _329  and  _330
REMARK  138  A    between atoms: _333  and  _335
REMARK  139  A    between atoms: _335  and  _336
REMARK  140  A    between atoms: _338  and  _340
REMARK  141  A    between atoms: _340  and  _341
REMARK  142  A    between atoms: _344  and  _346
REMARK  143  A    between atoms: _346  and  _347
REMARK  144  A    between atoms: _346  and  _349
REMARK  145  A    between atoms: _349  and  _350
REMARK  146  A    between atoms: _353  and  _355
REMARK  147  A    between atoms: _355  and  _356
REMARK  148  A    between atoms: _355  and  _358
REMARK  149  A    between atoms: _358  and  _359
REMARK  150  A    between atoms: _362  and  _364
REMARK  151  A    between atoms: _364  and  _365
REMARK  152  A    between atoms: _364  and  _367
REMARK  153  A    between atoms: _367  and  _368
REMARK  154  A    between atoms: _371  and  _373
REMARK  155  A    between atoms: _373  and  _374
REMARK  156  A    between atoms: _373  and  _376
REMARK  157  A    between atoms: _379  and  _381
REMARK  158  A    between atoms: _381  and  _382
REMARK  159  A    between atoms: _381  and  _384
REMARK  160  A    between atoms: _384  and  _385
REMARK  161  A    between atoms: _388  and  _390
REMARK  162  A    between atoms: _390  and  _391
REMARK  163  A    between atoms: _390  and  _393
REMARK  164  A    between atoms: _393  and  _394
REMARK  165  A    between atoms: _394  and  _395
REMARK  166  A    between atoms: _395  and  _396
REMARK  167  A    between atoms: _396  and  _397
REMARK  168  A    between atoms: _401  and  _403
REMARK  169  A    between atoms: _403  and  _404
REMARK  170  A    between atoms: _403  and  _406
REMARK  171  A    between atoms: _406  and  _407
REMARK  172  A    between atoms: _407  and  _408
REMARK  173  A    between atoms: _410  and  _412
REMARK  174  A    between atoms: _412  and  _413
REMARK  175  A    between atoms: _412  and  _415
REMARK  176  A    between atoms: _415  and  _416
REMARK  177  A    between atoms: _419  and  _421
REMARK  178  A    between atoms: _421  and  _422
REMARK  179  A    between atoms: _424  and  _426
REMARK  180  A    between atoms: _426  and  _427
REMARK  181  A    between atoms: _429  and  _431
REMARK  182  A    between atoms: _431  and  _432
REMARK  183  A    between atoms: _431  and  _434
REMARK  184  A    between atoms: _434  and  _435
REMARK  185  A    between atoms: _438  and  _440
REMARK  186  A    between atoms: _440  and  _441
REMARK  187  A    between atoms: _443  and  _445
REMARK  188  A    between atoms: _445  and  _446
REMARK  189  A    between atoms: _448  and  _450
REMARK  190  A    between atoms: _450  and  _451
REMARK  191  A    between atoms: _450  and  _453
REMARK  192  A    between atoms: _453  and  _454
REMARK  193  A    between atoms: _460  and  _462
REMARK  194  A    between atoms: _462  and  _463
REMARK  195  A    between atoms: _462  and  _465
REMARK  196  A    between atoms: _465  and  _466
REMARK  197  A    between atoms: _469  and  _471
REMARK  198  A    between atoms: _471  and  _472
REMARK  199  A    between atoms: _471  and  _474
REMARK  200  A    between atoms: _477  and  _479
REMARK  201  A    between atoms: _479  and  _480
REMARK  202  A    between atoms: _479  and  _482
REMARK  203  A    between atoms: _482  and  _483
REMARK  204  A    between atoms: _486  and  _488
REMARK  205  A    between atoms: _488  and  _489
REMARK  206  A    between atoms: _488  and  _491
REMARK  207  A    between atoms: _491  and  _492
REMARK  208  A    between atoms: _496  and  _497
REMARK  209  A    between atoms: _502  and  _504
REMARK  210  A    between atoms: _504  and  _505
REMARK  211  A    between atoms: _508  and  _510
REMARK  212  A    between atoms: _510  and  _511
REMARK  213  A    between atoms: _510  and  _513
REMARK  214  A    between atoms: _513  and  _514
REMARK  215  A    between atoms: _519  and  _521
REMARK  216  A    between atoms: _521  and  _522
REMARK  217  A    between atoms: _521  and  _524
REMARK  218  A    between atoms: _524  and  _525
REMARK  219  A    between atoms: _528  and  _530
REMARK  220  A    between atoms: _530  and  _531
REMARK  221  A    between atoms: _530  and  _533
REMARK  222  A    between atoms: _533  and  _534
REMARK  223  A    between atoms: _537  and  _539
REMARK  224  A    between atoms: _539  and  _540
REMARK  225  A    between atoms: _542  and  _544
REMARK  226  A    between atoms: _544  and  _545
REMARK  227  A    between atoms: _544  and  _547
REMARK  228  A    between atoms: _547  and  _548
REMARK  229  A    between atoms: _548  and  _549
REMARK  230  A    between atoms: _549  and  _550
REMARK  231  A    between atoms: _559  and  _561
REMARK  232  A    between atoms: _561  and  _562
REMARK  233  A    between atoms: _561  and  _564
REMARK  234  A    between atoms: _564  and  _565
REMARK                            x       y       z     vdW  Elec       q    Type
REMARK                         _______ _______ _______ _____ _____    ______ ____
ROOT
ATOM      1  C   GLY A   5      18.219  17.216   9.342  0.00  0.00    +0.243 C 
ATOM      2  O   GLY A   5      17.377  17.370  10.202  0.00  0.00    -0.273 OA
ATOM      3  N   ILE A   6      19.355  17.927   9.367  0.00  0.00    -0.297 N 
ATOM      4  H   ILE A   6      20.092  17.758   8.653  0.00  0.00    +0.150 HD
ENDROOT
BRANCH   3   5
ATOM      5  CA  ILE A   6      19.554  18.937  10.397  0.00  0.00    +0.149 C 
BRANCH   5   6
ATOM      6  C   ILE A   6      18.519  20.014  10.161  0.00  0.00    +0.241 C 
ATOM      7  N   GLY A   7      17.873  20.551  11.173  0.00  0.00    -0.295 N 
ATOM      8  H   GLY A   7      18.070  20.230  12.142  0.00  0.00    +0.150 HD
ATOM      9  O   ILE A   6      18.221  20.411   9.036  0.00  0.00    -0.273 OA
BRANCH   7  10
ATOM     10  CA  GLY A   7      16.883  21.593  10.942  0.00  0.00    +0.176 C 
BRANCH  10  11
ATOM     11  C   GLY A   7      15.489  21.033  10.926  0.00  0.00    +0.243 C 
ATOM     12  O   GLY A   7      14.529  21.770  11.151  0.00  0.00    -0.273 OA
ATOM     13  N   GLY A   8      15.276  19.754  10.628  0.00  0.00    -0.295 N 
ATOM     14  H   GLY A   8      16.083  19.114  10.483  0.00  0.00    +0.150 HD
BRANCH  13  15
ATOM     15  CA  GLY A   8      13.917  19.248  10.505  0.00  0.00    +0.176 C 
BRANCH  15  16
ATOM     16  C   GLY A   8      13.662  18.588   9.160  0.00  0.00    +0.243 C 
ATOM     17  N   PHE A   9      12.405  18.412   8.806  0.00  0.00    -0.297 N 
ATOM     18  H   PHE A   9      11.691  18.793   9.459  0.00  0.00    +0.150 HD
ATOM     19  O   GLY A   8      14.566  18.204   8.416  0.00  0.00    -0.273 OA
BRANCH  17  20
ATOM     20  CA  PHE A   9      11.895  17.758   7.627  0.00  0.00    +0.153 C 
BRANCH  20  21
ATOM     21  C   PHE A   9      11.469  18.722   6.523  0.00  0.00    +0.241 C 
ATOM     22  O   PHE A   9      11.023  19.856   6.721  0.00  0.00    -0.273 OA
ATOM     23  N   ILE A  10      11.559  18.226   5.289  0.00  0.00    -0.298 N 
ATOM     24  H   ILE A  10      12.094  17.349   5.126  0.00  0.00    +0.150 HD
BRANCH  23  25
ATOM     25  CA  ILE A  10      10.916  18.898   4.161  0.00  0.00    +0.137 C 
BRANCH  25  26
ATOM     26  CB  ILE A  10      11.910  19.600   3.215  0.00  0.00    +0.026 C 
ATOM     27  CG2 ILE A  10      12.611  20.794   3.900  0.00  0.00    +0.002 C 
BRANCH  26  28
ATOM     28  CG1 ILE A  10      12.938  18.682   2.588  0.00  0.00    +0.002 C 
ATOM     29  CD1 ILE A  10      13.870  19.227   1.542  0.00  0.00    +0.000 C 
ENDBRANCH  26  28
ENDBRANCH  25  26
BRANCH  25  30
ATOM     30  C   ILE A  10      10.062  17.870   3.419  0.00  0.00    +0.227 C 
ATOM     31  O   ILE A  10      10.352  16.661   3.449  0.00  0.00    -0.286 OA
ENDBRANCH  25  30
ENDBRANCH  23  25
ENDBRANCH  20  21
BRANCH  20  32
ATOM     32  CB  PHE A   9      10.664  16.877   8.008  0.00  0.00    +0.055 C 
BRANCH  32  33
ATOM     33  CG  PHE A   9      11.121  15.621   8.739  0.00  0.00    -0.020 A 
ATOM     34  CD2 PHE A   9      11.434  15.652  10.090  0.00  0.00    -0.004 A 
ATOM     35  CE2 PHE A   9      11.881  14.529  10.773  0.00  0.00    -0.000 A 
ATOM     36  CZ  PHE A   9      12.068  13.340  10.081  0.00  0.00    -0.000 A 
ATOM     37  CE1 PHE A   9      11.730  13.288   8.742  0.00  0.00    -0.000 A 
ATOM     38  CD1 PHE A   9      11.284  14.413   8.080  0.00  0.00    -0.004 A 
ENDBRANCH  32  33
ENDBRANCH  20  32
ENDBRANCH  17  20
ENDBRANCH  15  16
ENDBRANCH  13  15
ENDBRANCH  10  11
ENDBRANCH   7  10
ENDBRANCH   5   6
BRANCH   5  39
ATOM     39  CB  ILE A   6      20.984  19.499  10.367  0.00  0.00    +0.027 C 
ATOM     40  CG2 ILE A   6      21.019  20.897  10.994  0.00  0.00    +0.002 C 
BRANCH  39  41
ATOM     41  CG1 ILE A   6      22.025  18.675  11.111  0.00  0.00    +0.002 C 
ATOM     42  CD1 ILE A   6      22.213  17.309  10.521  0.00  0.00    +0.000 C 
ENDBRANCH  39  41
ENDBRANCH   5  39
ENDBRANCH   3   5
BRANCH   1  43
ATOM     43  CA  GLY A   5      17.970  16.219   8.241  0.00  0.00    +0.176 C 
BRANCH  43  45
ATOM     44  C   GLY A   4      16.088  14.880   7.593  0.00  0.00    +0.243 C 
ATOM     45  N   GLY A   5      16.551  16.063   7.970  0.00  0.00    -0.295 N 
ATOM     46  H   GLY A   5      15.905  16.872   8.071  0.00  0.00    +0.150 HD
ATOM     47  O   GLY A   4      16.834  13.926   7.339  0.00  0.00    -0.273 OA
BRANCH  44  48
ATOM     48  CA  GLY A   4      14.595  14.768   7.573  0.00  0.00    +0.176 C 
BRANCH  48  50
ATOM     49  C   ILE A   3      13.419  14.587   5.488  0.00  0.00    +0.241 C 
ATOM     50  N   GLY A   4      14.136  13.992   6.446  0.00  0.00    -0.295 N 
ATOM     51  H   GLY A   4      14.361  12.979   6.380  0.00  0.00    +0.150 HD
ATOM     52  O   ILE A   3      13.143  15.789   5.470  0.00  0.00    -0.273 OA
BRANCH  49  53
ATOM     53  CA  ILE A   3      12.915  13.640   4.408  0.00  0.00    +0.149 C 
BRANCH  53  56
ATOM     54  C   MET A   2      10.608  13.049   4.221  0.00  0.00    +0.241 C 
ATOM     55  O   MET A   2      10.820  11.863   4.444  0.00  0.00    -0.273 OA
ATOM     56  N   ILE A   3      11.520  14.012   4.146  0.00  0.00    -0.297 N 
ATOM     57  H   ILE A   3      11.256  14.990   3.911  0.00  0.00    +0.150 HD
BRANCH  54  58
ATOM     58  CA  MET A   2       9.174  13.488   3.981  0.00  0.00    +0.149 C 
BRANCH  58  60
ATOM     59  C   LYS A   1       8.181  12.817   1.865  0.00  0.00    +0.238 C 
ATOM     60  N   MET A   2       8.534  12.541   3.084  0.00  0.00    -0.297 N 
ATOM     61  H   MET A   2       8.347  11.582   3.440  0.00  0.00    +0.150 HD
ATOM     62  O   LYS A   1       8.203  13.963   1.371  0.00  0.00    -0.274 OA
BRANCH  59  63
ATOM     63  CA  LYS A   1       7.764  11.643   0.991  0.00  0.00    +0.145 C 
BRANCH  63  64
ATOM     64  N   LYS A   1       6.734  12.055   0.046  0.00  0.00    -0.238 NA
ATOM     65  H   LYS A   1       6.713  13.034  -0.304  0.00  0.00    +0.142 HD
ENDBRANCH  63  64
BRANCH  63  66
ATOM     66  CB  LYS A   1       8.994  11.139   0.234  0.00  0.00    +0.026 C 
BRANCH  66  67
ATOM     67  CG  LYS A   1      10.027  10.415   1.071  0.00  0.00    -0.000 C 
BRANCH  67  68
ATOM     68  CD  LYS A   1      11.021   9.612   0.275  0.00  0.00    -0.024 C 
BRANCH  68  69
ATOM     69  CE  LYS A   1      12.047   8.970   1.159  0.00  0.00    -0.086 C 
BRANCH  69  70
ATOM     70  NZ  LYS A   1      11.575   7.912   2.055  0.00  0.00    +0.380 N 
ATOM     71  HZ1 LYS A   1      10.852   8.298   2.695  0.00  0.00    -0.089 HD
ATOM     72  HZ2 LYS A   1      12.375   7.549   2.612  0.00  0.00    -0.089 HD
ATOM     73  HZ3 LYS A   1      11.164   7.140   1.492  0.00  0.00    -0.089 HD
ENDBRANCH  69  70
ENDBRANCH  68  69
ENDBRANCH  67  68
ENDBRANCH  66  67
ENDBRANCH  63  66
ENDBRANCH  59  63
ENDBRANCH  58  60
BRANCH  58  74
ATOM     74  CB  MET A   2       8.421  13.562   5.312  0.00  0.00    +0.041 C 
BRANCH  74  75
ATOM     75  CG  MET A   2       7.071  14.223   5.090  0.00  0.00    +0.060 C 
BRANCH  75  76
ATOM     76  SD  MET A   2       6.238  14.552   6.631  0.00  0.00    -0.139 S 
ATOM     77  CE  MET A   2       4.996  13.252   6.655  0.00  0.00    +0.069 C 
ENDBRANCH  75  76
ENDBRANCH  74  75
ENDBRANCH  58  74
ENDBRANCH  54  58
ENDBRANCH  53  56
BRANCH  53  78
ATOM     78  CB  ILE A   3      13.804  13.640   3.166  0.00  0.00    +0.027 C 
ATOM     79  CG2 ILE A   3      13.377  12.500   2.254  0.00  0.00    +0.002 C 
BRANCH  78  80
ATOM     80  CG1 ILE A   3      13.803  14.986   2.449  0.00  0.00    +0.002 C 
ATOM     81  CD1 ILE A   3      14.735  15.065   1.265  0.00  0.00    +0.000 C 
ENDBRANCH  78  80
ENDBRANCH  53  78
ENDBRANCH  49  53
ENDBRANCH  48  50
ENDBRANCH  44  48
ENDBRANCH  43  45
ENDBRANCH   1  43
TORSDOF 36
REMARK  Name = ../refined-set-2016/1sdv/1sdv_pocket.pdb
REMARK  234 active torsions:
REMARK  status: ('A' for Active; 'I' for Inactive)
REMARK    1  A    between atoms: _1  and  _3
REMARK    2  A    between atoms: _3  and  _4
REMARK    3  A    between atoms: _3  and  _6
REMARK    4  A    between atoms: _6  and  _7
REMARK    5  A    between atoms: _7  and  _8
REMARK    6  A    between atoms: _8  and  _9
REMARK    7  A    between atoms: _18  and  _20
REMARK    8  A    between atoms: _20  and  _21
REMARK    9  A    between atoms: _20  and  _23
REMARK   10  A    between atoms: _23  and  _24
REMARK   11  A    between atoms: _27  and  _29
REMARK   12  A    between atoms: _29  and  _30
REMARK   13  A    between atoms: _29  and  _32
REMARK   14  A    between atoms: _32  and  _33
REMARK   15  A    between atoms: _36  and  _38
REMARK   16  A    between atoms: _38  and  _39
REMARK   17  A    between atoms: _38  and  _41
REMARK   18  A    between atoms: _41  and  _42
REMARK   19  A    between atoms: _45  and  _47
REMARK   20  A    between atoms: _47  and  _48
REMARK   21  A    between atoms: _47  and  _50
REMARK   22  A    between atoms: _50  and  _51
REMARK   23  A    between atoms: _54  and  _56
REMARK   24  A    between atoms: _56  and  _57
REMARK   25  A    between atoms: _56  and  _59
REMARK   26  A    between atoms: _59  and  _60
REMARK   27  A    between atoms: _63  and  _65
REMARK   28  A    between atoms: _65  and  _66
REMARK   29  A    between atoms: _68  and  _70
REMARK   30  A    between atoms: _70  and  _71
REMARK   31  A    between atoms: _74  and  _76
REMARK   32  A    between atoms: _76  and  _77
REMARK   33  A    between atoms: _76  and  _79
REMARK   34  A    between atoms: _79  and  _80
REMARK   35  A    between atoms: _83  and  _85
REMARK   36  A    between atoms: _85  and  _86
REMARK   37  A    between atoms: _85  and  _88
REMARK   38  A    between atoms: _88  and  _89
REMARK   39  A    between atoms: _92  and  _94
REMARK   40  A    between atoms: _94  and  _95
REMARK   41  A    between atoms: _94  and  _97
REMARK   42  A    between atoms: _97  and  _98
REMARK   43  A    between atoms: _101  and  _103
REMARK   44  A    between atoms: _103  and  _104
REMARK   45  A    between atoms: _103  and  _106
REMARK   46  A    between atoms: _109  and  _111
REMARK   47  A    between atoms: _111  and  _112
REMARK   48  A    between atoms: _111  and  _114
REMARK   49  A    between atoms: _114  and  _115
REMARK   50  A    between atoms: _115  and  _116
REMARK   51  A    between atoms: _116  and  _117
REMARK   52  A    between atoms: _117  and  _118
REMARK   53  A    between atoms: _122  and  _124
REMARK   54  A    between atoms: _124  and  _125
REMARK   55  A    between atoms: _124  and  _127
REMARK   56  A    between atoms: _127  and  _128
REMARK   57  A    between atoms: _128  and  _129
REMARK   58  A    between atoms: _131  and  _133
REMARK   59  A    between atoms: _133  and  _134
REMARK   60  A    between atoms: _133  and  _136
REMARK   61  A    between atoms: _136  and  _137
REMARK   62  A    between atoms: _140  and  _142
REMARK   63  A    between atoms: _142  and  _143
REMARK   64  A    between atoms: _145  and  _147
REMARK   65  A    between atoms: _147  and  _148
REMARK   66  A    between atoms: _150  and  _152
REMARK   67  A    between atoms: _152  and  _153
REMARK   68  A    between atoms: _152  and  _155
REMARK   69  A    between atoms: _155  and  _156
REMARK   70  A    between atoms: _159  and  _161
REMARK   71  A    between atoms: _161  and  _162
REMARK   72  A    between atoms: _164  and  _166
REMARK   73  A    between atoms: _166  and  _167
REMARK   74  A    between atoms: _169  and  _171
REMARK   75  A    between atoms: _171  and  _172
REMARK   76  A    between atoms: _171  and  _174
REMARK   77  A    between atoms: _174  and  _175
REMARK   78  A    between atoms: _181  and  _183
REMARK   79  A    between atoms: _183  and  _184
REMARK   80  A    between atoms: _183  and  _186
REMARK   81  A    between atoms: _186  and  _187
REMARK   82  A    between atoms: _190  and  _192
REMARK   83  A    between atoms: _192  and  _193
REMARK   84  A    between atoms: _192  and  _195
REMARK   85  A    between atoms: _198  and  _200
REMARK   86  A    between atoms: _200  and  _201
REMARK   87  A    between atoms: _200  and  _203
REMARK   88  A    between atoms: _203  and  _204
REMARK   89  A    between atoms: _207  and  _209
REMARK   90  A    between atoms: _209  and  _210
REMARK   91  A    between atoms: _209  and  _212
REMARK   92  A    between atoms: _212  and  _213
REMARK   93  A    between atoms: _217  and  _218
REMARK   94  A    between atoms: _223  and  _225
REMARK   95  A    between atoms: _225  and  _226
REMARK   96  A    between atoms: _229  and  _231
REMARK   97  A    between atoms: _231  and  _232
REMARK   98  A    between atoms: _231  and  _234
REMARK   99  A    between atoms: _234  and  _235
REMARK  100  A    between atoms: _240  and  _242
REMARK  101  A    between atoms: _242  and  _243
REMARK  102  A    between atoms: _242  and  _245
REMARK  103  A    between atoms: _245  and  _246
REMARK  104  A    between atoms: _249  and  _251
REMARK  105  A    between atoms: _251  and  _252
REMARK  106  A    between atoms: _251  and  _254
REMARK  107  A    between atoms: _254  and  _255
REMARK  108  A    between atoms: _258  and  _260
REMARK  109  A    between atoms: _260  and  _261
REMARK  110  A    between atoms: _263  and  _265
REMARK  111  A    between atoms: _265  and  _266
REMARK  112  A    between atoms: _265  and  _268
REMARK  113  A    between atoms: _268  and  _269
REMARK  114  A    between atoms: _269  and  _270
REMARK  115  A    between atoms: _270  and  _271
REMARK  116  A    between atoms: _280  and  _282
REMARK  117  A    between atoms: _282  and  _283
REMARK  118  A    between atoms: _282  and  _285
REMARK  119  A    between atoms: _285  and  _286
REMARK  120  A    between atoms: _286  and  _287
REMARK  121  A    between atoms: _287  and  _288
REMARK  122  A    between atoms: _297  and  _299
REMARK  123  A    between atoms: _299  and  _300
REMARK  124  A    between atoms: _299  and  _302
REMARK  125  A    between atoms: _302  and  _303
REMARK  126  A    between atoms: _306  and  _308
REMARK  127  A    between atoms: _308  and  _309
REMARK  128  A    between atoms: _308  and  _311
REMARK  129  A    between atoms: _311  and  _312
REMARK  130  A    between atoms: _315  and  _317
REMARK  131  A    between atoms: _317  and  _318
REMARK  132  A    between atoms: _317  and  _320
REMARK  133  A    between atoms: _320  and  _321
REMARK  134  A    between atoms: _324  and  _326
REMARK  135  A    between atoms: _326  and  _327
REMARK  136  A    between atoms: _326  and  _329
REMARK  137  A    between atoms: _329  and  _330
REMARK  138  A    between atoms: _333  and  _335
REMARK  139  A    between atoms: _335  and  _336
REMARK  140  A    between atoms: _338  and  _340
REMARK  141  A    between atoms: _340  and  _341
REMARK  142  A    between atoms: _344  and  _346
REMARK  143  A    between atoms: _346  and  _347
REMARK  144  A    between atoms: _346  and  _349
REMARK  145  A    between atoms: _349  and  _350
REMARK  146  A    between atoms: _353  and  _355
REMARK  147  A    between atoms: _355  and  _356
REMARK  148  A    between atoms: _355  and  _358
REMARK  149  A    between atoms: _358  and  _359
REMARK  150  A    between atoms: _362  and  _364
REMARK  151  A    between atoms: _364  and  _365
REMARK  152  A    between atoms: _364  and  _367
REMARK  153  A    between atoms: _367  and  _368
REMARK  154  A    between atoms: _371  and  _373
REMARK  155  A    between atoms: _373  and  _374
REMARK  156  A    between atoms: _373  and  _376
REMARK  157  A    between atoms: _379  and  _381
REMARK  158  A    between atoms: _381  and  _382
REMARK  159  A    between atoms: _381  and  _384
REMARK  160  A    between atoms: _384  and  _385
REMARK  161  A    between atoms: _388  and  _390
REMARK  162  A    between atoms: _390  and  _391
REMARK  163  A    between atoms: _390  and  _393
REMARK  164  A    between atoms: _393  and  _394
REMARK  165  A    between atoms: _394  and  _395
REMARK  166  A    between atoms: _395  and  _396
REMARK  167  A    between atoms: _396  and  _397
REMARK  168  A    between atoms: _401  and  _403
REMARK  169  A    between atoms: _403  and  _404
REMARK  170  A    between atoms: _403  and  _406
REMARK  171  A    between atoms: _406  and  _407
REMARK  172  A    between atoms: _407  and  _408
REMARK  173  A    between atoms: _410  and  _412
REMARK  174  A    between atoms: _412  and  _413
REMARK  175  A    between atoms: _412  and  _415
REMARK  176  A    between atoms: _415  and  _416
REMARK  177  A    between atoms: _419  and  _421
REMARK  178  A    between atoms: _421  and  _422
REMARK  179  A    between atoms: _424  and  _426
REMARK  180  A    between atoms: _426  and  _427
REMARK  181  A    between atoms: _429  and  _431
REMARK  182  A    between atoms: _431  and  _432
REMARK  183  A    between atoms: _431  and  _434
REMARK  184  A    between atoms: _434  and  _435
REMARK  185  A    between atoms: _438  and  _440
REMARK  186  A    between atoms: _440  and  _441
REMARK  187  A    between atoms: _443  and  _445
REMARK  188  A    between atoms: _445  and  _446
REMARK  189  A    between atoms: _448  and  _450
REMARK  190  A    between atoms: _450  and  _451
REMARK  191  A    between atoms: _450  and  _453
REMARK  192  A    between atoms: _453  and  _454
REMARK  193  A    between atoms: _460  and  _462
REMARK  194  A    between atoms: _462  and  _463
REMARK  195  A    between atoms: _462  and  _465
REMARK  196  A    between atoms: _465  and  _466
REMARK  197  A    between atoms: _469  and  _471
REMARK  198  A    between atoms: _471  and  _472
REMARK  199  A    between atoms: _471  and  _474
REMARK  200  A    between atoms: _477  and  _479
REMARK  201  A    between atoms: _479  and  _480
REMARK  202  A    between atoms: _479  and  _482
REMARK  203  A    between atoms: _482  and  _483
REMARK  204  A    between atoms: _486  and  _488
REMARK  205  A    between atoms: _488  and  _489
REMARK  206  A    between atoms: _488  and  _491
REMARK  207  A    between atoms: _491  and  _492
REMARK  208  A    between atoms: _496  and  _497
REMARK  209  A    between atoms: _502  and  _504
REMARK  210  A    between atoms: _504  and  _505
REMARK  211  A    between atoms: _508  and  _510
REMARK  212  A    between atoms: _510  and  _511
REMARK  213  A    between atoms: _510  and  _513
REMARK  214  A    between atoms: _513  and  _514
REMARK  215  A    between atoms: _519  and  _521
REMARK  216  A    between atoms: _521  and  _522
REMARK  217  A    between atoms: _521  and  _524
REMARK  218  A    between atoms: _524  and  _525
REMARK  219  A    between atoms: _528  and  _530
REMARK  220  A    between atoms: _530  and  _531
REMARK  221  A    between atoms: _530  and  _533
REMARK  222  A    between atoms: _533  and  _534
REMARK  223  A    between atoms: _537  and  _539
REMARK  224  A    between atoms: _539  and  _540
REMARK  225  A    between atoms: _542  and  _544
REMARK  226  A    between atoms: _544  and  _545
REMARK  227  A    between atoms: _544  and  _547
REMARK  228  A    between atoms: _547  and  _548
REMARK  229  A    between atoms: _548  and  _549
REMARK  230  A    between atoms: _549  and  _550
REMARK  231  A    between atoms: _559  and  _561
REMARK  232  A    between atoms: _561  and  _562
REMARK  233  A    between atoms: _561  and  _564
REMARK  234  A    between atoms: _564  and  _565
REMARK                            x       y       z     vdW  Elec       q    Type
REMARK                         _______ _______ _______ _____ _____    ______ ____
ROOT
ATOM      1  CA  VAL A   1       9.249  16.321  -1.465  0.00  0.00    +0.133 C 
ENDROOT
BRANCH   1   2
ATOM      2  CB  VAL A   1      10.683  15.805  -1.481  0.00  0.00    +0.023 C 
ATOM      3  CG2 VAL A   1      11.611  16.705  -0.676  0.00  0.00    +0.002 C 
ATOM      4  CG1 VAL A   1      10.732  14.397  -0.921  0.00  0.00    +0.002 C 
ENDBRANCH   1   2
BRANCH   1   5
ATOM      5  N   VAL A   1       8.711  16.402  -0.109  0.00  0.00    -0.239 NA
ATOM      6  H   VAL A   1       8.370  15.543   0.368  0.00  0.00    +0.142 HD
ENDBRANCH   1   5
BRANCH   1   7
ATOM      7  C   VAL A   1       8.334  15.409  -2.298  0.00  0.00    +0.224 C 
ATOM      8  O   VAL A   1       7.463  14.703  -1.772  0.00  0.00    -0.287 OA
ENDBRANCH   1   7
TORSDOF 3
REMARK  Name = ../refined-set-2016/1sdv/1sdv_pocket.pdb
REMARK  234 active torsions:
REMARK  status: ('A' for Active; 'I' for Inactive)
REMARK    1  A    between atoms: _1  and  _3
REMARK    2  A    between atoms: _3  and  _4
REMARK    3  A    between atoms: _3  and  _6
REMARK    4  A    between atoms: _6  and  _7
REMARK    5  A    between atoms: _7  and  _8
REMARK    6  A    between atoms: _8  and  _9
REMARK    7  A    between atoms: _18  and  _20
REMARK    8  A    between atoms: _20  and  _21
REMARK    9  A    between atoms: _20  and  _23
REMARK   10  A    between atoms: _23  and  _24
REMARK   11  A    between atoms: _27  and  _29
REMARK   12  A    between atoms: _29  and  _30
REMARK   13  A    between atoms: _29  and  _32
REMARK   14  A    between atoms: _32  and  _33
REMARK   15  A    between atoms: _36  and  _38
REMARK   16  A    between atoms: _38  and  _39
REMARK   17  A    between atoms: _38  and  _41
REMARK   18  A    between atoms: _41  and  _42
REMARK   19  A    between atoms: _45  and  _47
REMARK   20  A    between atoms: _47  and  _48
REMARK   21  A    between atoms: _47  and  _50
REMARK   22  A    between atoms: _50  and  _51
REMARK   23  A    between atoms: _54  and  _56
REMARK   24  A    between atoms: _56  and  _57
REMARK   25  A    between atoms: _56  and  _59
REMARK   26  A    between atoms: _59  and  _60
REMARK   27  A    between atoms: _63  and  _65
REMARK   28  A    between atoms: _65  and  _66
REMARK   29  A    between atoms: _68  and  _70
REMARK   30  A    between atoms: _70  and  _71
REMARK   31  A    between atoms: _74  and  _76
REMARK   32  A    between atoms: _76  and  _77
REMARK   33  A    between atoms: _76  and  _79
REMARK   34  A    between atoms: _79  and  _80
REMARK   35  A    between atoms: _83  and  _85
REMARK   36  A    between atoms: _85  and  _86
REMARK   37  A    between atoms: _85  and  _88
REMARK   38  A    between atoms: _88  and  _89
REMARK   39  A    between atoms: _92  and  _94
REMARK   40  A    between atoms: _94  and  _95
REMARK   41  A    between atoms: _94  and  _97
REMARK   42  A    between atoms: _97  and  _98
REMARK   43  A    between atoms: _101  and  _103
REMARK   44  A    between atoms: _103  and  _104
REMARK   45  A    between atoms: _103  and  _106
REMARK   46  A    between atoms: _109  and  _111
REMARK   47  A    between atoms: _111  and  _112
REMARK   48  A    between atoms: _111  and  _114
REMARK   49  A    between atoms: _114  and  _115
REMARK   50  A    between atoms: _115  and  _116
REMARK   51  A    between atoms: _116  and  _117
REMARK   52  A    between atoms: _117  and  _118
REMARK   53  A    between atoms: _122  and  _124
REMARK   54  A    between atoms: _124  and  _125
REMARK   55  A    between atoms: _124  and  _127
REMARK   56  A    between atoms: _127  and  _128
REMARK   57  A    between atoms: _128  and  _129
REMARK   58  A    between atoms: _131  and  _133
REMARK   59  A    between atoms: _133  and  _134
REMARK   60  A    between atoms: _133  and  _136
REMARK   61  A    between atoms: _136  and  _137
REMARK   62  A    between atoms: _140  and  _142
REMARK   63  A    between atoms: _142  and  _143
REMARK   64  A    between atoms: _145  and  _147
REMARK   65  A    between atoms: _147  and  _148
REMARK   66  A    between atoms: _150  and  _152
REMARK   67  A    between atoms: _152  and  _153
REMARK   68  A    between atoms: _152  and  _155
REMARK   69  A    between atoms: _155  and  _156
REMARK   70  A    between atoms: _159  and  _161
REMARK   71  A    between atoms: _161  and  _162
REMARK   72  A    between atoms: _164  and  _166
REMARK   73  A    between atoms: _166  and  _167
REMARK   74  A    between atoms: _169  and  _171
REMARK   75  A    between atoms: _171  and  _172
REMARK   76  A    between atoms: _171  and  _174
REMARK   77  A    between atoms: _174  and  _175
REMARK   78  A    between atoms: _181  and  _183
REMARK   79  A    between atoms: _183  and  _184
REMARK   80  A    between atoms: _183  and  _186
REMARK   81  A    between atoms: _186  and  _187
REMARK   82  A    between atoms: _190  and  _192
REMARK   83  A    between atoms: _192  and  _193
REMARK   84  A    between atoms: _192  and  _195
REMARK   85  A    between atoms: _198  and  _200
REMARK   86  A    between atoms: _200  and  _201
REMARK   87  A    between atoms: _200  and  _203
REMARK   88  A    between atoms: _203  and  _204
REMARK   89  A    between atoms: _207  and  _209
REMARK   90  A    between atoms: _209  and  _210
REMARK   91  A    between atoms: _209  and  _212
REMARK   92  A    between atoms: _212  and  _213
REMARK   93  A    between atoms: _217  and  _218
REMARK   94  A    between atoms: _223  and  _225
REMARK   95  A    between atoms: _225  and  _226
REMARK   96  A    between atoms: _229  and  _231
REMARK   97  A    between atoms: _231  and  _232
REMARK   98  A    between atoms: _231  and  _234
REMARK   99  A    between atoms: _234  and  _235
REMARK  100  A    between atoms: _240  and  _242
REMARK  101  A    between atoms: _242  and  _243
REMARK  102  A    between atoms: _242  and  _245
REMARK  103  A    between atoms: _245  and  _246
REMARK  104  A    between atoms: _249  and  _251
REMARK  105  A    between atoms: _251  and  _252
REMARK  106  A    between atoms: _251  and  _254
REMARK  107  A    between atoms: _254  and  _255
REMARK  108  A    between atoms: _258  and  _260
REMARK  109  A    between atoms: _260  and  _261
REMARK  110  A    between atoms: _263  and  _265
REMARK  111  A    between atoms: _265  and  _266
REMARK  112  A    between atoms: _265  and  _268
REMARK  113  A    between atoms: _268  and  _269
REMARK  114  A    between atoms: _269  and  _270
REMARK  115  A    between atoms: _270  and  _271
REMARK  116  A    between atoms: _280  and  _282
REMARK  117  A    between atoms: _282  and  _283
REMARK  118  A    between atoms: _282  and  _285
REMARK  119  A    between atoms: _285  and  _286
REMARK  120  A    between atoms: _286  and  _287
REMARK  121  A    between atoms: _287  and  _288
REMARK  122  A    between atoms: _297  and  _299
REMARK  123  A    between atoms: _299  and  _300
REMARK  124  A    between atoms: _299  and  _302
REMARK  125  A    between atoms: _302  and  _303
REMARK  126  A    between atoms: _306  and  _308
REMARK  127  A    between atoms: _308  and  _309
REMARK  128  A    between atoms: _308  and  _311
REMARK  129  A    between atoms: _311  and  _312
REMARK  130  A    between atoms: _315  and  _317
REMARK  131  A    between atoms: _317  and  _318
REMARK  132  A    between atoms: _317  and  _320
REMARK  133  A    between atoms: _320  and  _321
REMARK  134  A    between atoms: _324  and  _326
REMARK  135  A    between atoms: _326  and  _327
REMARK  136  A    between atoms: _326  and  _329
REMARK  137  A    between atoms: _329  and  _330
REMARK  138  A    between atoms: _333  and  _335
REMARK  139  A    between atoms: _335  and  _336
REMARK  140  A    between atoms: _338  and  _340
REMARK  141  A    between atoms: _340  and  _341
REMARK  142  A    between atoms: _344  and  _346
REMARK  143  A    between atoms: _346  and  _347
REMARK  144  A    between atoms: _346  and  _349
REMARK  145  A    between atoms: _349  and  _350
REMARK  146  A    between atoms: _353  and  _355
REMARK  147  A    between atoms: _355  and  _356
REMARK  148  A    between atoms: _355  and  _358
REMARK  149  A    between atoms: _358  and  _359
REMARK  150  A    between atoms: _362  and  _364
REMARK  151  A    between atoms: _364  and  _365
REMARK  152  A    between atoms: _364  and  _367
REMARK  153  A    between atoms: _367  and  _368
REMARK  154  A    between atoms: _371  and  _373
REMARK  155  A    between atoms: _373  and  _374
REMARK  156  A    between atoms: _373  and  _376
REMARK  157  A    between atoms: _379  and  _381
REMARK  158  A    between atoms: _381  and  _382
REMARK  159  A    between atoms: _381  and  _384
REMARK  160  A    between atoms: _384  and  _385
REMARK  161  A    between atoms: _388  and  _390
REMARK  162  A    between atoms: _390  and  _391
REMARK  163  A    between atoms: _390  and  _393
REMARK  164  A    between atoms: _393  and  _394
REMARK  165  A    between atoms: _394  and  _395
REMARK  166  A    between atoms: _395  and  _396
REMARK  167  A    between atoms: _396  and  _397
REMARK  168  A    between atoms: _401  and  _403
REMARK  169  A    between atoms: _403  and  _404
REMARK  170  A    between atoms: _403  and  _406
REMARK  171  A    between atoms: _406  and  _407
REMARK  172  A    between atoms: _407  and  _408
REMARK  173  A    between atoms: _410  and  _412
REMARK  174  A    between atoms: _412  and  _413
REMARK  175  A    between atoms: _412  and  _415
REMARK  176  A    between atoms: _415  and  _416
REMARK  177  A    between atoms: _419  and  _421
REMARK  178  A    between atoms: _421  and  _422
REMARK  179  A    between atoms: _424  and  _426
REMARK  180  A    between atoms: _426  and  _427
REMARK  181  A    between atoms: _429  and  _431
REMARK  182  A    between atoms: _431  and  _432
REMARK  183  A    between atoms: _431  and  _434
REMARK  184  A    between atoms: _434  and  _435
REMARK  185  A    between atoms: _438  and  _440
REMARK  186  A    between atoms: _440  and  _441
REMARK  187  A    between atoms: _443  and  _445
REMARK  188  A    between atoms: _445  and  _446
REMARK  189  A    between atoms: _448  and  _450
REMARK  190  A    between atoms: _450  and  _451
REMARK  191  A    between atoms: _450  and  _453
REMARK  192  A    between atoms: _453  and  _454
REMARK  193  A    between atoms: _460  and  _462
REMARK  194  A    between atoms: _462  and  _463
REMARK  195  A    between atoms: _462  and  _465
REMARK  196  A    between atoms: _465  and  _466
REMARK  197  A    between atoms: _469  and  _471
REMARK  198  A    between atoms: _471  and  _472
REMARK  199  A    between atoms: _471  and  _474
REMARK  200  A    between atoms: _477  and  _479
REMARK  201  A    between atoms: _479  and  _480
REMARK  202  A    between atoms: _479  and  _482
REMARK  203  A    between atoms: _482  and  _483
REMARK  204  A    between atoms: _486  and  _488
REMARK  205  A    between atoms: _488  and  _489
REMARK  206  A    between atoms: _488  and  _491
REMARK  207  A    between atoms: _491  and  _492
REMARK  208  A    between atoms: _496  and  _497
REMARK  209  A    between atoms: _502  and  _504
REMARK  210  A    between atoms: _504  and  _505
REMARK  211  A    between atoms: _508  and  _510
REMARK  212  A    between atoms: _510  and  _511
REMARK  213  A    between atoms: _510  and  _513
REMARK  214  A    between atoms: _513  and  _514
REMARK  215  A    between atoms: _519  and  _521
REMARK  216  A    between atoms: _521  and  _522
REMARK  217  A    between atoms: _521  and  _524
REMARK  218  A    between atoms: _524  and  _525
REMARK  219  A    between atoms: _528  and  _530
REMARK  220  A    between atoms: _530  and  _531
REMARK  221  A    between atoms: _530  and  _533
REMARK  222  A    between atoms: _533  and  _534
REMARK  223  A    between atoms: _537  and  _539
REMARK  224  A    between atoms: _539  and  _540
REMARK  225  A    between atoms: _542  and  _544
REMARK  226  A    between atoms: _544  and  _545
REMARK  227  A    between atoms: _544  and  _547
REMARK  228  A    between atoms: _547  and  _548
REMARK  229  A    between atoms: _548  and  _549
REMARK  230  A    between atoms: _549  and  _550
REMARK  231  A    between atoms: _559  and  _561
REMARK  232  A    between atoms: _561  and  _562
REMARK  233  A    between atoms: _561  and  _564
REMARK  234  A    between atoms: _564  and  _565
REMARK                            x       y       z     vdW  Elec       q    Type
REMARK                         _______ _______ _______ _____ _____    ______ ____
ROOT
ATOM      1  CA  LEU A   1      13.083  13.280  -4.978  0.00  0.00    +0.133 C 
ENDROOT
BRANCH   1   2
ATOM      2  N   LEU A   1      14.009  12.436  -5.716  0.00  0.00    -0.239 NA
ATOM      3  H   LEU A   1      14.990  12.374  -5.376  0.00  0.00    +0.142 HD
ENDBRANCH   1   2
BRANCH   1   4
ATOM      4  C   LEU A   1      13.278  14.714  -5.450  0.00  0.00    +0.224 C 
ATOM      5  O   LEU A   1      14.402  15.135  -5.763  0.00  0.00    -0.287 OA
ENDBRANCH   1   4
BRANCH   1   6
ATOM      6  CB  LEU A   1      13.353  13.189  -3.487  0.00  0.00    +0.025 C 
BRANCH   6   7
ATOM      7  CG  LEU A   1      13.502  11.806  -2.862  0.00  0.00    +0.002 C 
ATOM      8  CD2 LEU A   1      13.803  11.859  -1.368  0.00  0.00    +0.000 C 
ATOM      9  CD1 LEU A   1      12.238  10.993  -3.165  0.00  0.00    +0.000 C 
ENDBRANCH   6   7
ENDBRANCH   1   6
TORSDOF 4
REMARK  Name = ../refined-set-2016/1sdv/1sdv_pocket.pdb
REMARK  234 active torsions:
REMARK  status: ('A' for Active; 'I' for Inactive)
REMARK    1  A    between atoms: _1  and  _3
REMARK    2  A    between atoms: _3  and  _4
REMARK    3  A    between atoms: _3  and  _6
REMARK    4  A    between atoms: _6  and  _7
REMARK    5  A    between atoms: _7  and  _8
REMARK    6  A    between atoms: _8  and  _9
REMARK    7  A    between atoms: _18  and  _20
REMARK    8  A    between atoms: _20  and  _21
REMARK    9  A    between atoms: _20  and  _23
REMARK   10  A    between atoms: _23  and  _24
REMARK   11  A    between atoms: _27  and  _29
REMARK   12  A    between atoms: _29  and  _30
REMARK   13  A    between atoms: _29  and  _32
REMARK   14  A    between atoms: _32  and  _33
REMARK   15  A    between atoms: _36  and  _38
REMARK   16  A    between atoms: _38  and  _39
REMARK   17  A    between atoms: _38  and  _41
REMARK   18  A    between atoms: _41  and  _42
REMARK   19  A    between atoms: _45  and  _47
REMARK   20  A    between atoms: _47  and  _48
REMARK   21  A    between atoms: _47  and  _50
REMARK   22  A    between atoms: _50  and  _51
REMARK   23  A    between atoms: _54  and  _56
REMARK   24  A    between atoms: _56  and  _57
REMARK   25  A    between atoms: _56  and  _59
REMARK   26  A    between atoms: _59  and  _60
REMARK   27  A    between atoms: _63  and  _65
REMARK   28  A    between atoms: _65  and  _66
REMARK   29  A    between atoms: _68  and  _70
REMARK   30  A    between atoms: _70  and  _71
REMARK   31  A    between atoms: _74  and  _76
REMARK   32  A    between atoms: _76  and  _77
REMARK   33  A    between atoms: _76  and  _79
REMARK   34  A    between atoms: _79  and  _80
REMARK   35  A    between atoms: _83  and  _85
REMARK   36  A    between atoms: _85  and  _86
REMARK   37  A    between atoms: _85  and  _88
REMARK   38  A    between atoms: _88  and  _89
REMARK   39  A    between atoms: _92  and  _94
REMARK   40  A    between atoms: _94  and  _95
REMARK   41  A    between atoms: _94  and  _97
REMARK   42  A    between atoms: _97  and  _98
REMARK   43  A    between atoms: _101  and  _103
REMARK   44  A    between atoms: _103  and  _104
REMARK   45  A    between atoms: _103  and  _106
REMARK   46  A    between atoms: _109  and  _111
REMARK   47  A    between atoms: _111  and  _112
REMARK   48  A    between atoms: _111  and  _114
REMARK   49  A    between atoms: _114  and  _115
REMARK   50  A    between atoms: _115  and  _116
REMARK   51  A    between atoms: _116  and  _117
REMARK   52  A    between atoms: _117  and  _118
REMARK   53  A    between atoms: _122  and  _124
REMARK   54  A    between atoms: _124  and  _125
REMARK   55  A    between atoms: _124  and  _127
REMARK   56  A    between atoms: _127  and  _128
REMARK   57  A    between atoms: _128  and  _129
REMARK   58  A    between atoms: _131  and  _133
REMARK   59  A    between atoms: _133  and  _134
REMARK   60  A    between atoms: _133  and  _136
REMARK   61  A    between atoms: _136  and  _137
REMARK   62  A    between atoms: _140  and  _142
REMARK   63  A    between atoms: _142  and  _143
REMARK   64  A    between atoms: _145  and  _147
REMARK   65  A    between atoms: _147  and  _148
REMARK   66  A    between atoms: _150  and  _152
REMARK   67  A    between atoms: _152  and  _153
REMARK   68  A    between atoms: _152  and  _155
REMARK   69  A    between atoms: _155  and  _156
REMARK   70  A    between atoms: _159  and  _161
REMARK   71  A    between atoms: _161  and  _162
REMARK   72  A    between atoms: _164  and  _166
REMARK   73  A    between atoms: _166  and  _167
REMARK   74  A    between atoms: _169  and  _171
REMARK   75  A    between atoms: _171  and  _172
REMARK   76  A    between atoms: _171  and  _174
REMARK   77  A    between atoms: _174  and  _175
REMARK   78  A    between atoms: _181  and  _183
REMARK   79  A    between atoms: _183  and  _184
REMARK   80  A    between atoms: _183  and  _186
REMARK   81  A    between atoms: _186  and  _187
REMARK   82  A    between atoms: _190  and  _192
REMARK   83  A    between atoms: _192  and  _193
REMARK   84  A    between atoms: _192  and  _195
REMARK   85  A    between atoms: _198  and  _200
REMARK   86  A    between atoms: _200  and  _201
REMARK   87  A    between atoms: _200  and  _203
REMARK   88  A    between atoms: _203  and  _204
REMARK   89  A    between atoms: _207  and  _209
REMARK   90  A    between atoms: _209  and  _210
REMARK   91  A    between atoms: _209  and  _212
REMARK   92  A    between atoms: _212  and  _213
REMARK   93  A    between atoms: _217  and  _218
REMARK   94  A    between atoms: _223  and  _225
REMARK   95  A    between atoms: _225  and  _226
REMARK   96  A    between atoms: _229  and  _231
REMARK   97  A    between atoms: _231  and  _232
REMARK   98  A    between atoms: _231  and  _234
REMARK   99  A    between atoms: _234  and  _235
REMARK  100  A    between atoms: _240  and  _242
REMARK  101  A    between atoms: _242  and  _243
REMARK  102  A    between atoms: _242  and  _245
REMARK  103  A    between atoms: _245  and  _246
REMARK  104  A    between atoms: _249  and  _251
REMARK  105  A    between atoms: _251  and  _252
REMARK  106  A    between atoms: _251  and  _254
REMARK  107  A    between atoms: _254  and  _255
REMARK  108  A    between atoms: _258  and  _260
REMARK  109  A    between atoms: _260  and  _261
REMARK  110  A    between atoms: _263  and  _265
REMARK  111  A    between atoms: _265  and  _266
REMARK  112  A    between atoms: _265  and  _268
REMARK  113  A    between atoms: _268  and  _269
REMARK  114  A    between atoms: _269  and  _270
REMARK  115  A    between atoms: _270  and  _271
REMARK  116  A    between atoms: _280  and  _282
REMARK  117  A    between atoms: _282  and  _283
REMARK  118  A    between atoms: _282  and  _285
REMARK  119  A    between atoms: _285  and  _286
REMARK  120  A    between atoms: _286  and  _287
REMARK  121  A    between atoms: _287  and  _288
REMARK  122  A    between atoms: _297  and  _299
REMARK  123  A    between atoms: _299  and  _300
REMARK  124  A    between atoms: _299  and  _302
REMARK  125  A    between atoms: _302  and  _303
REMARK  126  A    between atoms: _306  and  _308
REMARK  127  A    between atoms: _308  and  _309
REMARK  128  A    between atoms: _308  and  _311
REMARK  129  A    between atoms: _311  and  _312
REMARK  130  A    between atoms: _315  and  _317
REMARK  131  A    between atoms: _317  and  _318
REMARK  132  A    between atoms: _317  and  _320
REMARK  133  A    between atoms: _320  and  _321
REMARK  134  A    between atoms: _324  and  _326
REMARK  135  A    between atoms: _326  and  _327
REMARK  136  A    between atoms: _326  and  _329
REMARK  137  A    between atoms: _329  and  _330
REMARK  138  A    between atoms: _333  and  _335
REMARK  139  A    between atoms: _335  and  _336
REMARK  140  A    between atoms: _338  and  _340
REMARK  141  A    between atoms: _340  and  _341
REMARK  142  A    between atoms: _344  and  _346
REMARK  143  A    between atoms: _346  and  _347
REMARK  144  A    between atoms: _346  and  _349
REMARK  145  A    between atoms: _349  and  _350
REMARK  146  A    between atoms: _353  and  _355
REMARK  147  A    between atoms: _355  and  _356
REMARK  148  A    between atoms: _355  and  _358
REMARK  149  A    between atoms: _358  and  _359
REMARK  150  A    between atoms: _362  and  _364
REMARK  151  A    between atoms: _364  and  _365
REMARK  152  A    between atoms: _364  and  _367
REMARK  153  A    between atoms: _367  and  _368
REMARK  154  A    between atoms: _371  and  _373
REMARK  155  A    between atoms: _373  and  _374
REMARK  156  A    between atoms: _373  and  _376
REMARK  157  A    between atoms: _379  and  _381
REMARK  158  A    between atoms: _381  and  _382
REMARK  159  A    between atoms: _381  and  _384
REMARK  160  A    between atoms: _384  and  _385
REMARK  161  A    between atoms: _388  and  _390
REMARK  162  A    between atoms: _390  and  _391
REMARK  163  A    between atoms: _390  and  _393
REMARK  164  A    between atoms: _393  and  _394
REMARK  165  A    between atoms: _394  and  _395
REMARK  166  A    between atoms: _395  and  _396
REMARK  167  A    between atoms: _396  and  _397
REMARK  168  A    between atoms: _401  and  _403
REMARK  169  A    between atoms: _403  and  _404
REMARK  170  A    between atoms: _403  and  _406
REMARK  171  A    between atoms: _406  and  _407
REMARK  172  A    between atoms: _407  and  _408
REMARK  173  A    between atoms: _410  and  _412
REMARK  174  A    between atoms: _412  and  _413
REMARK  175  A    between atoms: _412  and  _415
REMARK  176  A    between atoms: _415  and  _416
REMARK  177  A    between atoms: _419  and  _421
REMARK  178  A    between atoms: _421  and  _422
REMARK  179  A    between atoms: _424  and  _426
REMARK  180  A    between atoms: _426  and  _427
REMARK  181  A    between atoms: _429  and  _431
REMARK  182  A    between atoms: _431  and  _432
REMARK  183  A    between atoms: _431  and  _434
REMARK  184  A    between atoms: _434  and  _435
REMARK  185  A    between atoms: _438  and  _440
REMARK  186  A    between atoms: _440  and  _441
REMARK  187  A    between atoms: _443  and  _445
REMARK  188  A    between atoms: _445  and  _446
REMARK  189  A    between atoms: _448  and  _450
REMARK  190  A    between atoms: _450  and  _451
REMARK  191  A    between atoms: _450  and  _453
REMARK  192  A    between atoms: _453  and  _454
REMARK  193  A    between atoms: _460  and  _462
REMARK  194  A    between atoms: _462  and  _463
REMARK  195  A    between atoms: _462  and  _465
REMARK  196  A    between atoms: _465  and  _466
REMARK  197  A    between atoms: _469  and  _471
REMARK  198  A    between atoms: _471  and  _472
REMARK  199  A    between atoms: _471  and  _474
REMARK  200  A    between atoms: _477  and  _479
REMARK  201  A    between atoms: _479  and  _480
REMARK  202  A    between atoms: _479  and  _482
REMARK  203  A    between atoms: _482  and  _483
REMARK  204  A    between atoms: _486  and  _488
REMARK  205  A    between atoms: _488  and  _489
REMARK  206  A    between atoms: _488  and  _491
REMARK  207  A    between atoms: _491  and  _492
REMARK  208  A    between atoms: _496  and  _497
REMARK  209  A    between atoms: _502  and  _504
REMARK  210  A    between atoms: _504  and  _505
REMARK  211  A    between atoms: _508  and  _510
REMARK  212  A    between atoms: _510  and  _511
REMARK  213  A    between atoms: _510  and  _513
REMARK  214  A    between atoms: _513  and  _514
REMARK  215  A    between atoms: _519  and  _521
REMARK  216  A    between atoms: _521  and  _522
REMARK  217  A    between atoms: _521  and  _524
REMARK  218  A    between atoms: _524  and  _525
REMARK  219  A    between atoms: _528  and  _530
REMARK  220  A    between atoms: _530  and  _531
REMARK  221  A    between atoms: _530  and  _533
REMARK  222  A    between atoms: _533  and  _534
REMARK  223  A    between atoms: _537  and  _539
REMARK  224  A    between atoms: _539  and  _540
REMARK  225  A    between atoms: _542  and  _544
REMARK  226  A    between atoms: _544  and  _545
REMARK  227  A    between atoms: _544  and  _547
REMARK  228  A    between atoms: _547  and  _548
REMARK  229  A    between atoms: _548  and  _549
REMARK  230  A    between atoms: _549  and  _550
REMARK  231  A    between atoms: _559  and  _561
REMARK  232  A    between atoms: _561  and  _562
REMARK  233  A    between atoms: _561  and  _564
REMARK  234  A    between atoms: _564  and  _565
REMARK                            x       y       z     vdW  Elec       q    Type
REMARK                         _______ _______ _______ _____ _____    ______ ____
ROOT
ATOM      1  C   ILE A   5      22.058  14.520  -3.990  0.00  0.00    +0.241 C 
ATOM      2  O   ILE A   5      20.903  14.122  -4.233  0.00  0.00    -0.273 OA
ATOM      3  N   ILE A   6      23.161  13.841  -4.261  0.00  0.00    -0.297 N 
ATOM      4  H   ILE A   6      24.076  14.323  -4.152  0.00  0.00    +0.150 HD
ENDROOT
BRANCH   3   5
ATOM      5  CA  ILE A   6      23.159  12.462  -4.701  0.00  0.00    +0.149 C 
BRANCH   5   6
ATOM      6  C   ILE A   6      23.429  11.625  -3.450  0.00  0.00    +0.241 C 
ATOM      7  O   ILE A   6      24.511  11.662  -2.856  0.00  0.00    -0.273 OA
ATOM      8  N   GLY A   7      22.425  10.869  -3.046  0.00  0.00    -0.295 N 
ATOM      9  H   GLY A   7      21.538  10.884  -3.588  0.00  0.00    +0.150 HD
BRANCH   8  10
ATOM     10  CA  GLY A   7      22.513  10.021  -1.878  0.00  0.00    +0.176 C 
BRANCH  10  11
ATOM     11  C   GLY A   7      22.800   8.571  -2.175  0.00  0.00    +0.243 C 
ATOM     12  N   ARG A   8      22.731   7.767  -1.095  0.00  0.00    -0.297 N 
ATOM     13  H   ARG A   8      22.350   8.124  -0.195  0.00  0.00    +0.150 HD
ATOM     14  O   GLY A   7      23.036   8.153  -3.301  0.00  0.00    -0.273 OA
BRANCH  12  15
ATOM     15  CA  ARG A   8      23.195   6.399  -1.206  0.00  0.00    +0.149 C 
BRANCH  15  16
ATOM     16  C   ARG A   8      22.438   5.526  -2.200  0.00  0.00    +0.241 C 
ATOM     17  N   ASN A   9      21.166   5.819  -2.425  0.00  0.00    -0.298 N 
ATOM     18  H   ASN A   9      20.709   6.606  -1.922  0.00  0.00    +0.150 HD
ATOM     19  O   ARG A   8      23.036   4.635  -2.784  0.00  0.00    -0.273 OA
BRANCH  17  20
ATOM     20  CA  ASN A   9      20.412   5.017  -3.394  0.00  0.00    +0.146 C 
BRANCH  20  21
ATOM     21  C   ASN A   9      21.076   5.030  -4.771  0.00  0.00    +0.227 C 
ATOM     22  O   ASN A   9      21.110   4.035  -5.474  0.00  0.00    -0.286 OA
ENDBRANCH  20  21
BRANCH  20  23
ATOM     23  CB  ASN A   9      18.963   5.466  -3.487  0.00  0.00    +0.112 C 
BRANCH  23  24
ATOM     24  CG  ASN A   9      18.727   6.804  -4.157  0.00  0.00    +0.222 C 
ATOM     25  OD1 ASN A   9      19.354   7.789  -3.762  0.00  0.00    -0.275 OA
ATOM     26  ND2 ASN A   9      17.870   6.767  -5.158  0.00  0.00    -0.329 N 
ATOM     27 HD21 ASN A   9      17.396   5.875  -5.404  0.00  0.00    +0.145 HD
ATOM     28 HD22 ASN A   9      17.668   7.630  -5.701  0.00  0.00    +0.145 HD
ENDBRANCH  23  24
ENDBRANCH  20  23
ENDBRANCH  17  20
ENDBRANCH  15  16
BRANCH  15  29
ATOM     29  CB  ARG A   8      23.215   5.735   0.186  0.00  0.00    +0.033 C 
BRANCH  29  30
ATOM     30  CG  ARG A   8      24.233   6.331   1.147  0.00  0.00    +0.045 C 
BRANCH  30  31
ATOM     31  CD  ARG A   8      24.415   5.574   2.465  0.00  0.00    +0.174 C 
BRANCH  31  32
ATOM     32  NE  ARG A   8      23.154   5.551   3.201  0.00  0.00    -0.265 N 
ATOM     33  HE  ARG A   8      22.964   6.382   3.796  0.00  0.00    +0.259 HD
ATOM     34  CZ  ARG A   8      22.226   4.617   3.211  0.00  0.00    +0.342 C 
ATOM     35  NH2 ARG A   8      21.104   4.745   3.906  0.00  0.00    -0.292 N 
ATOM     36 HH21 ARG A   8      20.935   5.604   4.467  0.00  0.00    +0.255 HD
ATOM     37 HH22 ARG A   8      20.393   3.986   3.890  0.00  0.00    +0.255 HD
ATOM     38  NH1 ARG A   8      22.377   3.497   2.522  0.00  0.00    -0.292 N 
ATOM     39 HH11 ARG A   8      21.633   2.770   2.542  0.00  0.00    +0.255 HD
ATOM     40 HH12 ARG A   8      23.239   3.344   1.961  0.00  0.00    +0.255 HD
ENDBRANCH  31  32
ENDBRANCH  30  31
ENDBRANCH  29  30
ENDBRANCH  15  29
ENDBRANCH  12  15
ENDBRANCH  10  11
ENDBRANCH   8  10
ENDBRANCH   5   6
BRANCH   5  41
ATOM     41  CB  ILE A   6      24.193  12.187  -5.783  0.00  0.00    +0.027 C 
ATOM     42  CG2 ILE A   6      24.147  10.715  -6.225  0.00  0.00    +0.002 C 
BRANCH  41  43
ATOM     43  CG1 ILE A   6      24.114  13.116  -6.986  0.00  0.00    +0.002 C 
ATOM     44  CD1 ILE A   6      22.725  13.284  -7.555  0.00  0.00    +0.000 C 
ENDBRANCH  41  43
ENDBRANCH   5  41
ENDBRANCH   3   5
BRANCH   1  45
ATOM     45  CA  ILE A   5      22.213  15.887  -3.360  0.00  0.00    +0.149 C 
BRANCH  45  47
ATOM     46  C   ASN A   4      22.051  18.039  -4.500  0.00  0.00    +0.241 C 
ATOM     47  N   ILE A   5      21.488  16.904  -4.107  0.00  0.00    -0.297 N 
ATOM     48  H   ILE A   5      20.489  16.734  -4.342  0.00  0.00    +0.150 HD
ATOM     49  O   ASN A   4      23.250  18.297  -4.374  0.00  0.00    -0.273 OA
BRANCH  46  50
ATOM     50  CA  ASN A   4      21.156  19.074  -5.172  0.00  0.00    +0.158 C 
BRANCH  50  53
ATOM     51  C   ALA A   3      20.848  20.493  -3.239  0.00  0.00    +0.241 C 
ATOM     52  O   ALA A   3      20.212  19.600  -2.689  0.00  0.00    -0.273 OA
ATOM     53  N   ASN A   4      21.283  20.378  -4.511  0.00  0.00    -0.297 N 
ATOM     54  H   ASN A   4      21.697  21.191  -5.009  0.00  0.00    +0.150 HD
BRANCH  51  55
ATOM     55  CA  ALA A   3      21.244  21.779  -2.517  0.00  0.00    +0.149 C 
ATOM     56  CB  ALA A   3      22.557  21.528  -1.763  0.00  0.00    +0.031 C 
BRANCH  55  59
ATOM     57  C   PRO A   2      20.120  23.455  -1.134  0.00  0.00    +0.241 C 
ATOM     58  O   PRO A   2      20.876  24.368  -1.498  0.00  0.00    -0.273 OA
ATOM     59  N   ALA A   3      20.236  22.211  -1.598  0.00  0.00    -0.297 N 
ATOM     60  H   ALA A   3      19.546  21.506  -1.269  0.00  0.00    +0.150 HD
BRANCH  57  66
ATOM     61  C   THR A   1      17.185  22.444  -0.994  0.00  0.00    +0.244 C 
ATOM     62  N   PRO A   2      17.997  22.718   0.018  0.00  0.00    -0.272 N 
ATOM     63  CD  PRO A   2      17.993  22.153   1.382  0.00  0.00    +0.094 C 
ATOM     64  CG  PRO A   2      18.591  23.286   2.193  0.00  0.00    +0.024 C 
ATOM     65  CB  PRO A   2      19.646  23.852   1.273  0.00  0.00    +0.031 C 
ATOM     66  CA  PRO A   2      19.023  23.766  -0.124  0.00  0.00    +0.152 C 
ATOM     67  O   THR A   1      17.174  23.125  -2.020  0.00  0.00    -0.273 OA
BRANCH  61  68
ATOM     68  CA  THR A   1      16.228  21.270  -0.881  0.00  0.00    +0.172 C 
BRANCH  68  69
ATOM     69  N   THR A   1      14.933  21.559  -1.497  0.00  0.00    -0.236 NA
ATOM     70  H   THR A   1      14.689  21.169  -2.430  0.00  0.00    +0.142 HD
ENDBRANCH  68  69
BRANCH  68  71
ATOM     71  CB  THR A   1      16.884  20.016  -1.503  0.00  0.00    +0.135 C 
ATOM     72  CG2 THR A   1      17.033  20.127  -3.012  0.00  0.00    +0.034 C 
BRANCH  71  73
ATOM     73  OG1 THR A   1      18.183  19.833  -0.908  0.00  0.00    -0.383 OA
ATOM     74  HG1 THR A   1      18.614  19.032  -1.299  0.00  0.00    +0.210 HD
ENDBRANCH  71  73
ENDBRANCH  68  71
ENDBRANCH  61  68
ENDBRANCH  57  66
ENDBRANCH  55  59
ENDBRANCH  51  55
ENDBRANCH  50  53
BRANCH  50  75
ATOM     75  CB  ASN A   4      21.549  19.182  -6.642  0.00  0.00    +0.114 C 
BRANCH  75  76
ATOM     76  CG  ASN A   4      20.574  20.088  -7.394  0.00  0.00    +0.222 C 
ATOM     77  OD1 ASN A   4      19.403  20.244  -7.056  0.00  0.00    -0.275 OA
ATOM     78  ND2 ASN A   4      21.092  20.702  -8.445  0.00  0.00    -0.329 N 
ATOM     79 HD21 ASN A   4      22.088  20.545  -8.700  0.00  0.00    +0.145 HD
ATOM     80 HD22 ASN A   4      20.503  21.342  -9.016  0.00  0.00    +0.145 HD
ENDBRANCH  75  76
ENDBRANCH  50  75
ENDBRANCH  46  50
ENDBRANCH  45  47
BRANCH  45  81
ATOM     81  CB  ILE A   5      21.662  15.840  -1.923  0.00  0.00    +0.027 C 
ATOM     82  CG2 ILE A   5      22.152  14.646  -1.156  0.00  0.00    +0.002 C 
BRANCH  81  83
ATOM     83  CG1 ILE A   5      21.955  17.152  -1.183  0.00  0.00    +0.002 C 
ATOM     84  CD1 ILE A   5      21.108  17.284   0.054  0.00  0.00    +0.000 C 
ENDBRANCH  81  83
ENDBRANCH  45  81
ENDBRANCH   1  45
TORSDOF 31
REMARK  Name = ../refined-set-2016/1sdv/1sdv_pocket.pdb
REMARK  234 active torsions:
REMARK  status: ('A' for Active; 'I' for Inactive)
REMARK    1  A    between atoms: _1  and  _3
REMARK    2  A    between atoms: _3  and  _4
REMARK    3  A    between atoms: _3  and  _6
REMARK    4  A    between atoms: _6  and  _7
REMARK    5  A    between atoms: _7  and  _8
REMARK    6  A    between atoms: _8  and  _9
REMARK    7  A    between atoms: _18  and  _20
REMARK    8  A    between atoms: _20  and  _21
REMARK    9  A    between atoms: _20  and  _23
REMARK   10  A    between atoms: _23  and  _24
REMARK   11  A    between atoms: _27  and  _29
REMARK   12  A    between atoms: _29  and  _30
REMARK   13  A    between atoms: _29  and  _32
REMARK   14  A    between atoms: _32  and  _33
REMARK   15  A    between atoms: _36  and  _38
REMARK   16  A    between atoms: _38  and  _39
REMARK   17  A    between atoms: _38  and  _41
REMARK   18  A    between atoms: _41  and  _42
REMARK   19  A    between atoms: _45  and  _47
REMARK   20  A    between atoms: _47  and  _48
REMARK   21  A    between atoms: _47  and  _50
REMARK   22  A    between atoms: _50  and  _51
REMARK   23  A    between atoms: _54  and  _56
REMARK   24  A    between atoms: _56  and  _57
REMARK   25  A    between atoms: _56  and  _59
REMARK   26  A    between atoms: _59  and  _60
REMARK   27  A    between atoms: _63  and  _65
REMARK   28  A    between atoms: _65  and  _66
REMARK   29  A    between atoms: _68  and  _70
REMARK   30  A    between atoms: _70  and  _71
REMARK   31  A    between atoms: _74  and  _76
REMARK   32  A    between atoms: _76  and  _77
REMARK   33  A    between atoms: _76  and  _79
REMARK   34  A    between atoms: _79  and  _80
REMARK   35  A    between atoms: _83  and  _85
REMARK   36  A    between atoms: _85  and  _86
REMARK   37  A    between atoms: _85  and  _88
REMARK   38  A    between atoms: _88  and  _89
REMARK   39  A    between atoms: _92  and  _94
REMARK   40  A    between atoms: _94  and  _95
REMARK   41  A    between atoms: _94  and  _97
REMARK   42  A    between atoms: _97  and  _98
REMARK   43  A    between atoms: _101  and  _103
REMARK   44  A    between atoms: _103  and  _104
REMARK   45  A    between atoms: _103  and  _106
REMARK   46  A    between atoms: _109  and  _111
REMARK   47  A    between atoms: _111  and  _112
REMARK   48  A    between atoms: _111  and  _114
REMARK   49  A    between atoms: _114  and  _115
REMARK   50  A    between atoms: _115  and  _116
REMARK   51  A    between atoms: _116  and  _117
REMARK   52  A    between atoms: _117  and  _118
REMARK   53  A    between atoms: _122  and  _124
REMARK   54  A    between atoms: _124  and  _125
REMARK   55  A    between atoms: _124  and  _127
REMARK   56  A    between atoms: _127  and  _128
REMARK   57  A    between atoms: _128  and  _129
REMARK   58  A    between atoms: _131  and  _133
REMARK   59  A    between atoms: _133  and  _134
REMARK   60  A    between atoms: _133  and  _136
REMARK   61  A    between atoms: _136  and  _137
REMARK   62  A    between atoms: _140  and  _142
REMARK   63  A    between atoms: _142  and  _143
REMARK   64  A    between atoms: _145  and  _147
REMARK   65  A    between atoms: _147  and  _148
REMARK   66  A    between atoms: _150  and  _152
REMARK   67  A    between atoms: _152  and  _153
REMARK   68  A    between atoms: _152  and  _155
REMARK   69  A    between atoms: _155  and  _156
REMARK   70  A    between atoms: _159  and  _161
REMARK   71  A    between atoms: _161  and  _162
REMARK   72  A    between atoms: _164  and  _166
REMARK   73  A    between atoms: _166  and  _167
REMARK   74  A    between atoms: _169  and  _171
REMARK   75  A    between atoms: _171  and  _172
REMARK   76  A    between atoms: _171  and  _174
REMARK   77  A    between atoms: _174  and  _175
REMARK   78  A    between atoms: _181  and  _183
REMARK   79  A    between atoms: _183  and  _184
REMARK   80  A    between atoms: _183  and  _186
REMARK   81  A    between atoms: _186  and  _187
REMARK   82  A    between atoms: _190  and  _192
REMARK   83  A    between atoms: _192  and  _193
REMARK   84  A    between atoms: _192  and  _195
REMARK   85  A    between atoms: _198  and  _200
REMARK   86  A    between atoms: _200  and  _201
REMARK   87  A    between atoms: _200  and  _203
REMARK   88  A    between atoms: _203  and  _204
REMARK   89  A    between atoms: _207  and  _209
REMARK   90  A    between atoms: _209  and  _210
REMARK   91  A    between atoms: _209  and  _212
REMARK   92  A    between atoms: _212  and  _213
REMARK   93  A    between atoms: _217  and  _218
REMARK   94  A    between atoms: _223  and  _225
REMARK   95  A    between atoms: _225  and  _226
REMARK   96  A    between atoms: _229  and  _231
REMARK   97  A    between atoms: _231  and  _232
REMARK   98  A    between atoms: _231  and  _234
REMARK   99  A    between atoms: _234  and  _235
REMARK  100  A    between atoms: _240  and  _242
REMARK  101  A    between atoms: _242  and  _243
REMARK  102  A    between atoms: _242  and  _245
REMARK  103  A    between atoms: _245  and  _246
REMARK  104  A    between atoms: _249  and  _251
REMARK  105  A    between atoms: _251  and  _252
REMARK  106  A    between atoms: _251  and  _254
REMARK  107  A    between atoms: _254  and  _255
REMARK  108  A    between atoms: _258  and  _260
REMARK  109  A    between atoms: _260  and  _261
REMARK  110  A    between atoms: _263  and  _265
REMARK  111  A    between atoms: _265  and  _266
REMARK  112  A    between atoms: _265  and  _268
REMARK  113  A    between atoms: _268  and  _269
REMARK  114  A    between atoms: _269  and  _270
REMARK  115  A    between atoms: _270  and  _271
REMARK  116  A    between atoms: _280  and  _282
REMARK  117  A    between atoms: _282  and  _283
REMARK  118  A    between atoms: _282  and  _285
REMARK  119  A    between atoms: _285  and  _286
REMARK  120  A    between atoms: _286  and  _287
REMARK  121  A    between atoms: _287  and  _288
REMARK  122  A    between atoms: _297  and  _299
REMARK  123  A    between atoms: _299  and  _300
REMARK  124  A    between atoms: _299  and  _302
REMARK  125  A    between atoms: _302  and  _303
REMARK  126  A    between atoms: _306  and  _308
REMARK  127  A    between atoms: _308  and  _309
REMARK  128  A    between atoms: _308  and  _311
REMARK  129  A    between atoms: _311  and  _312
REMARK  130  A    between atoms: _315  and  _317
REMARK  131  A    between atoms: _317  and  _318
REMARK  132  A    between atoms: _317  and  _320
REMARK  133  A    between atoms: _320  and  _321
REMARK  134  A    between atoms: _324  and  _326
REMARK  135  A    between atoms: _326  and  _327
REMARK  136  A    between atoms: _326  and  _329
REMARK  137  A    between atoms: _329  and  _330
REMARK  138  A    between atoms: _333  and  _335
REMARK  139  A    between atoms: _335  and  _336
REMARK  140  A    between atoms: _338  and  _340
REMARK  141  A    between atoms: _340  and  _341
REMARK  142  A    between atoms: _344  and  _346
REMARK  143  A    between atoms: _346  and  _347
REMARK  144  A    between atoms: _346  and  _349
REMARK  145  A    between atoms: _349  and  _350
REMARK  146  A    between atoms: _353  and  _355
REMARK  147  A    between atoms: _355  and  _356
REMARK  148  A    between atoms: _355  and  _358
REMARK  149  A    between atoms: _358  and  _359
REMARK  150  A    between atoms: _362  and  _364
REMARK  151  A    between atoms: _364  and  _365
REMARK  152  A    between atoms: _364  and  _367
REMARK  153  A    between atoms: _367  and  _368
REMARK  154  A    between atoms: _371  and  _373
REMARK  155  A    between atoms: _373  and  _374
REMARK  156  A    between atoms: _373  and  _376
REMARK  157  A    between atoms: _379  and  _381
REMARK  158  A    between atoms: _381  and  _382
REMARK  159  A    between atoms: _381  and  _384
REMARK  160  A    between atoms: _384  and  _385
REMARK  161  A    between atoms: _388  and  _390
REMARK  162  A    between atoms: _390  and  _391
REMARK  163  A    between atoms: _390  and  _393
REMARK  164  A    between atoms: _393  and  _394
REMARK  165  A    between atoms: _394  and  _395
REMARK  166  A    between atoms: _395  and  _396
REMARK  167  A    between atoms: _396  and  _397
REMARK  168  A    between atoms: _401  and  _403
REMARK  169  A    between atoms: _403  and  _404
REMARK  170  A    between atoms: _403  and  _406
REMARK  171  A    between atoms: _406  and  _407
REMARK  172  A    between atoms: _407  and  _408
REMARK  173  A    between atoms: _410  and  _412
REMARK  174  A    between atoms: _412  and  _413
REMARK  175  A    between atoms: _412  and  _415
REMARK  176  A    between atoms: _415  and  _416
REMARK  177  A    between atoms: _419  and  _421
REMARK  178  A    between atoms: _421  and  _422
REMARK  179  A    between atoms: _424  and  _426
REMARK  180  A    between atoms: _426  and  _427
REMARK  181  A    between atoms: _429  and  _431
REMARK  182  A    between atoms: _431  and  _432
REMARK  183  A    between atoms: _431  and  _434
REMARK  184  A    between atoms: _434  and  _435
REMARK  185  A    between atoms: _438  and  _440
REMARK  186  A    between atoms: _440  and  _441
REMARK  187  A    between atoms: _443  and  _445
REMARK  188  A    between atoms: _445  and  _446
REMARK  189  A    between atoms: _448  and  _450
REMARK  190  A    between atoms: _450  and  _451
REMARK  191  A    between atoms: _450  and  _453
REMARK  192  A    between atoms: _453  and  _454
REMARK  193  A    between atoms: _460  and  _462
REMARK  194  A    between atoms: _462  and  _463
REMARK  195  A    between atoms: _462  and  _465
REMARK  196  A    between atoms: _465  and  _466
REMARK  197  A    between atoms: _469  and  _471
REMARK  198  A    between atoms: _471  and  _472
REMARK  199  A    between atoms: _471  and  _474
REMARK  200  A    between atoms: _477  and  _479
REMARK  201  A    between atoms: _479  and  _480
REMARK  202  A    between atoms: _479  and  _482
REMARK  203  A    between atoms: _482  and  _483
REMARK  204  A    between atoms: _486  and  _488
REMARK  205  A    between atoms: _488  and  _489
REMARK  206  A    between atoms: _488  and  _491
REMARK  207  A    between atoms: _491  and  _492
REMARK  208  A    between atoms: _496  and  _497
REMARK  209  A    between atoms: _502  and  _504
REMARK  210  A    between atoms: _504  and  _505
REMARK  211  A    between atoms: _508  and  _510
REMARK  212  A    between atoms: _510  and  _511
REMARK  213  A    between atoms: _510  and  _513
REMARK  214  A    between atoms: _513  and  _514
REMARK  215  A    between atoms: _519  and  _521
REMARK  216  A    between atoms: _521  and  _522
REMARK  217  A    between atoms: _521  and  _524
REMARK  218  A    between atoms: _524  and  _525
REMARK  219  A    between atoms: _528  and  _530
REMARK  220  A    between atoms: _530  and  _531
REMARK  221  A    between atoms: _530  and  _533
REMARK  222  A    between atoms: _533  and  _534
REMARK  223  A    between atoms: _537  and  _539
REMARK  224  A    between atoms: _539  and  _540
REMARK  225  A    between atoms: _542  and  _544
REMARK  226  A    between atoms: _544  and  _545
REMARK  227  A    between atoms: _544  and  _547
REMARK  228  A    between atoms: _547  and  _548
REMARK  229  A    between atoms: _548  and  _549
REMARK  230  A    between atoms: _549  and  _550
REMARK  231  A    between atoms: _559  and  _561
REMARK  232  A    between atoms: _561  and  _562
REMARK  233  A    between atoms: _561  and  _564
REMARK  234  A    between atoms: _564  and  _565
REMARK                            x       y       z     vdW  Elec       q    Type
REMARK                         _______ _______ _______ _____ _____    ______ ____
ROOT
ATOM      1  O   HOH     1      27.499  21.117   5.170  0.00  0.00    +0.000 OA
ENDROOT
TORSDOF 0
REMARK  Name = ../refined-set-2016/1sdv/1sdv_pocket.pdb
REMARK  234 active torsions:
REMARK  status: ('A' for Active; 'I' for Inactive)
REMARK    1  A    between atoms: _1  and  _3
REMARK    2  A    between atoms: _3  and  _4
REMARK    3  A    between atoms: _3  and  _6
REMARK    4  A    between atoms: _6  and  _7
REMARK    5  A    between atoms: _7  and  _8
REMARK    6  A    between atoms: _8  and  _9
REMARK    7  A    between atoms: _18  and  _20
REMARK    8  A    between atoms: _20  and  _21
REMARK    9  A    between atoms: _20  and  _23
REMARK   10  A    between atoms: _23  and  _24
REMARK   11  A    between atoms: _27  and  _29
REMARK   12  A    between atoms: _29  and  _30
REMARK   13  A    between atoms: _29  and  _32
REMARK   14  A    between atoms: _32  and  _33
REMARK   15  A    between atoms: _36  and  _38
REMARK   16  A    between atoms: _38  and  _39
REMARK   17  A    between atoms: _38  and  _41
REMARK   18  A    between atoms: _41  and  _42
REMARK   19  A    between atoms: _45  and  _47
REMARK   20  A    between atoms: _47  and  _48
REMARK   21  A    between atoms: _47  and  _50
REMARK   22  A    between atoms: _50  and  _51
REMARK   23  A    between atoms: _54  and  _56
REMARK   24  A    between atoms: _56  and  _57
REMARK   25  A    between atoms: _56  and  _59
REMARK   26  A    between atoms: _59  and  _60
REMARK   27  A    between atoms: _63  and  _65
REMARK   28  A    between atoms: _65  and  _66
REMARK   29  A    between atoms: _68  and  _70
REMARK   30  A    between atoms: _70  and  _71
REMARK   31  A    between atoms: _74  and  _76
REMARK   32  A    between atoms: _76  and  _77
REMARK   33  A    between atoms: _76  and  _79
REMARK   34  A    between atoms: _79  and  _80
REMARK   35  A    between atoms: _83  and  _85
REMARK   36  A    between atoms: _85  and  _86
REMARK   37  A    between atoms: _85  and  _88
REMARK   38  A    between atoms: _88  and  _89
REMARK   39  A    between atoms: _92  and  _94
REMARK   40  A    between atoms: _94  and  _95
REMARK   41  A    between atoms: _94  and  _97
REMARK   42  A    between atoms: _97  and  _98
REMARK   43  A    between atoms: _101  and  _103
REMARK   44  A    between atoms: _103  and  _104
REMARK   45  A    between atoms: _103  and  _106
REMARK   46  A    between atoms: _109  and  _111
REMARK   47  A    between atoms: _111  and  _112
REMARK   48  A    between atoms: _111  and  _114
REMARK   49  A    between atoms: _114  and  _115
REMARK   50  A    between atoms: _115  and  _116
REMARK   51  A    between atoms: _116  and  _117
REMARK   52  A    between atoms: _117  and  _118
REMARK   53  A    between atoms: _122  and  _124
REMARK   54  A    between atoms: _124  and  _125
REMARK   55  A    between atoms: _124  and  _127
REMARK   56  A    between atoms: _127  and  _128
REMARK   57  A    between atoms: _128  and  _129
REMARK   58  A    between atoms: _131  and  _133
REMARK   59  A    between atoms: _133  and  _134
REMARK   60  A    between atoms: _133  and  _136
REMARK   61  A    between atoms: _136  and  _137
REMARK   62  A    between atoms: _140  and  _142
REMARK   63  A    between atoms: _142  and  _143
REMARK   64  A    between atoms: _145  and  _147
REMARK   65  A    between atoms: _147  and  _148
REMARK   66  A    between atoms: _150  and  _152
REMARK   67  A    between atoms: _152  and  _153
REMARK   68  A    between atoms: _152  and  _155
REMARK   69  A    between atoms: _155  and  _156
REMARK   70  A    between atoms: _159  and  _161
REMARK   71  A    between atoms: _161  and  _162
REMARK   72  A    between atoms: _164  and  _166
REMARK   73  A    between atoms: _166  and  _167
REMARK   74  A    between atoms: _169  and  _171
REMARK   75  A    between atoms: _171  and  _172
REMARK   76  A    between atoms: _171  and  _174
REMARK   77  A    between atoms: _174  and  _175
REMARK   78  A    between atoms: _181  and  _183
REMARK   79  A    between atoms: _183  and  _184
REMARK   80  A    between atoms: _183  and  _186
REMARK   81  A    between atoms: _186  and  _187
REMARK   82  A    between atoms: _190  and  _192
REMARK   83  A    between atoms: _192  and  _193
REMARK   84  A    between atoms: _192  and  _195
REMARK   85  A    between atoms: _198  and  _200
REMARK   86  A    between atoms: _200  and  _201
REMARK   87  A    between atoms: _200  and  _203
REMARK   88  A    between atoms: _203  and  _204
REMARK   89  A    between atoms: _207  and  _209
REMARK   90  A    between atoms: _209  and  _210
REMARK   91  A    between atoms: _209  and  _212
REMARK   92  A    between atoms: _212  and  _213
REMARK   93  A    between atoms: _217  and  _218
REMARK   94  A    between atoms: _223  and  _225
REMARK   95  A    between atoms: _225  and  _226
REMARK   96  A    between atoms: _229  and  _231
REMARK   97  A    between atoms: _231  and  _232
REMARK   98  A    between atoms: _231  and  _234
REMARK   99  A    between atoms: _234  and  _235
REMARK  100  A    between atoms: _240  and  _242
REMARK  101  A    between atoms: _242  and  _243
REMARK  102  A    between atoms: _242  and  _245
REMARK  103  A    between atoms: _245  and  _246
REMARK  104  A    between atoms: _249  and  _251
REMARK  105  A    between atoms: _251  and  _252
REMARK  106  A    between atoms: _251  and  _254
REMARK  107  A    between atoms: _254  and  _255
REMARK  108  A    between atoms: _258  and  _260
REMARK  109  A    between atoms: _260  and  _261
REMARK  110  A    between atoms: _263  and  _265
REMARK  111  A    between atoms: _265  and  _266
REMARK  112  A    between atoms: _265  and  _268
REMARK  113  A    between atoms: _268  and  _269
REMARK  114  A    between atoms: _269  and  _270
REMARK  115  A    between atoms: _270  and  _271
REMARK  116  A    between atoms: _280  and  _282
REMARK  117  A    between atoms: _282  and  _283
REMARK  118  A    between atoms: _282  and  _285
REMARK  119  A    between atoms: _285  and  _286
REMARK  120  A    between atoms: _286  and  _287
REMARK  121  A    between atoms: _287  and  _288
REMARK  122  A    between atoms: _297  and  _299
REMARK  123  A    between atoms: _299  and  _300
REMARK  124  A    between atoms: _299  and  _302
REMARK  125  A    between atoms: _302  and  _303
REMARK  126  A    between atoms: _306  and  _308
REMARK  127  A    between atoms: _308  and  _309
REMARK  128  A    between atoms: _308  and  _311
REMARK  129  A    between atoms: _311  and  _312
REMARK  130  A    between atoms: _315  and  _317
REMARK  131  A    between atoms: _317  and  _318
REMARK  132  A    between atoms: _317  and  _320
REMARK  133  A    between atoms: _320  and  _321
REMARK  134  A    between atoms: _324  and  _326
REMARK  135  A    between atoms: _326  and  _327
REMARK  136  A    between atoms: _326  and  _329
REMARK  137  A    between atoms: _329  and  _330
REMARK  138  A    between atoms: _333  and  _335
REMARK  139  A    between atoms: _335  and  _336
REMARK  140  A    between atoms: _338  and  _340
REMARK  141  A    between atoms: _340  and  _341
REMARK  142  A    between atoms: _344  and  _346
REMARK  143  A    between atoms: _346  and  _347
REMARK  144  A    between atoms: _346  and  _349
REMARK  145  A    between atoms: _349  and  _350
REMARK  146  A    between atoms: _353  and  _355
REMARK  147  A    between atoms: _355  and  _356
REMARK  148  A    between atoms: _355  and  _358
REMARK  149  A    between atoms: _358  and  _359
REMARK  150  A    between atoms: _362  and  _364
REMARK  151  A    between atoms: _364  and  _365
REMARK  152  A    between atoms: _364  and  _367
REMARK  153  A    between atoms: _367  and  _368
REMARK  154  A    between atoms: _371  and  _373
REMARK  155  A    between atoms: _373  and  _374
REMARK  156  A    between atoms: _373  and  _376
REMARK  157  A    between atoms: _379  and  _381
REMARK  158  A    between atoms: _381  and  _382
REMARK  159  A    between atoms: _381  and  _384
REMARK  160  A    between atoms: _384  and  _385
REMARK  161  A    between atoms: _388  and  _390
REMARK  162  A    between atoms: _390  and  _391
REMARK  163  A    between atoms: _390  and  _393
REMARK  164  A    between atoms: _393  and  _394
REMARK  165  A    between atoms: _394  and  _395
REMARK  166  A    between atoms: _395  and  _396
REMARK  167  A    between atoms: _396  and  _397
REMARK  168  A    between atoms: _401  and  _403
REMARK  169  A    between atoms: _403  and  _404
REMARK  170  A    between atoms: _403  and  _406
REMARK  171  A    between atoms: _406  and  _407
REMARK  172  A    between atoms: _407  and  _408
REMARK  173  A    between atoms: _410  and  _412
REMARK  174  A    between atoms: _412  and  _413
REMARK  175  A    between atoms: _412  and  _415
REMARK  176  A    between atoms: _415  and  _416
REMARK  177  A    between atoms: _419  and  _421
REMARK  178  A    between atoms: _421  and  _422
REMARK  179  A    between atoms: _424  and  _426
REMARK  180  A    between atoms: _426  and  _427
REMARK  181  A    between atoms: _429  and  _431
REMARK  182  A    between atoms: _431  and  _432
REMARK  183  A    between atoms: _431  and  _434
REMARK  184  A    between atoms: _434  and  _435
REMARK  185  A    between atoms: _438  and  _440
REMARK  186  A    between atoms: _440  and  _441
REMARK  187  A    between atoms: _443  and  _445
REMARK  188  A    between atoms: _445  and  _446
REMARK  189  A    between atoms: _448  and  _450
REMARK  190  A    between atoms: _450  and  _451
REMARK  191  A    between atoms: _450  and  _453
REMARK  192  A    between atoms: _453  and  _454
REMARK  193  A    between atoms: _460  and  _462
REMARK  194  A    between atoms: _462  and  _463
REMARK  195  A    between atoms: _462  and  _465
REMARK  196  A    between atoms: _465  and  _466
REMARK  197  A    between atoms: _469  and  _471
REMARK  198  A    between atoms: _471  and  _472
REMARK  199  A    between atoms: _471  and  _474
REMARK  200  A    between atoms: _477  and  _479
REMARK  201  A    between atoms: _479  and  _480
REMARK  202  A    between atoms: _479  and  _482
REMARK  203  A    between atoms: _482  and  _483
REMARK  204  A    between atoms: _486  and  _488
REMARK  205  A    between atoms: _488  and  _489
REMARK  206  A    between atoms: _488  and  _491
REMARK  207  A    between atoms: _491  and  _492
REMARK  208  A    between atoms: _496  and  _497
REMARK  209  A    between atoms: _502  and  _504
REMARK  210  A    between atoms: _504  and  _505
REMARK  211  A    between atoms: _508  and  _510
REMARK  212  A    between atoms: _510  and  _511
REMARK  213  A    between atoms: _510  and  _513
REMARK  214  A    between atoms: _513  and  _514
REMARK  215  A    between atoms: _519  and  _521
REMARK  216  A    between atoms: _521  and  _522
REMARK  217  A    between atoms: _521  and  _524
REMARK  218  A    between atoms: _524  and  _525
REMARK  219  A    between atoms: _528  and  _530
REMARK  220  A    between atoms: _530  and  _531
REMARK  221  A    between atoms: _530  and  _533
REMARK  222  A    between atoms: _533  and  _534
REMARK  223  A    between atoms: _537  and  _539
REMARK  224  A    between atoms: _539  and  _540
REMARK  225  A    between atoms: _542  and  _544
REMARK  226  A    between atoms: _544  and  _545
REMARK  227  A    between atoms: _544  and  _547
REMARK  228  A    between atoms: _547  and  _548
REMARK  229  A    between atoms: _548  and  _549
REMARK  230  A    between atoms: _549  and  _550
REMARK  231  A    between atoms: _559  and  _561
REMARK  232  A    between atoms: _561  and  _562
REMARK  233  A    between atoms: _561  and  _564
REMARK  234  A    between atoms: _564  and  _565
REMARK                            x       y       z     vdW  Elec       q    Type
REMARK                         _______ _______ _______ _____ _____    ______ ____
ROOT
ATOM      1  O   HOH     1      33.279  20.938  12.548  0.00  0.00    +0.000 OA
ENDROOT
TORSDOF 0
REMARK  Name = ../refined-set-2016/1sdv/1sdv_pocket.pdb
REMARK  234 active torsions:
REMARK  status: ('A' for Active; 'I' for Inactive)
REMARK    1  A    between atoms: _1  and  _3
REMARK    2  A    between atoms: _3  and  _4
REMARK    3  A    between atoms: _3  and  _6
REMARK    4  A    between atoms: _6  and  _7
REMARK    5  A    between atoms: _7  and  _8
REMARK    6  A    between atoms: _8  and  _9
REMARK    7  A    between atoms: _18  and  _20
REMARK    8  A    between atoms: _20  and  _21
REMARK    9  A    between atoms: _20  and  _23
REMARK   10  A    between atoms: _23  and  _24
REMARK   11  A    between atoms: _27  and  _29
REMARK   12  A    between atoms: _29  and  _30
REMARK   13  A    between atoms: _29  and  _32
REMARK   14  A    between atoms: _32  and  _33
REMARK   15  A    between atoms: _36  and  _38
REMARK   16  A    between atoms: _38  and  _39
REMARK   17  A    between atoms: _38  and  _41
REMARK   18  A    between atoms: _41  and  _42
REMARK   19  A    between atoms: _45  and  _47
REMARK   20  A    between atoms: _47  and  _48
REMARK   21  A    between atoms: _47  and  _50
REMARK   22  A    between atoms: _50  and  _51
REMARK   23  A    between atoms: _54  and  _56
REMARK   24  A    between atoms: _56  and  _57
REMARK   25  A    between atoms: _56  and  _59
REMARK   26  A    between atoms: _59  and  _60
REMARK   27  A    between atoms: _63  and  _65
REMARK   28  A    between atoms: _65  and  _66
REMARK   29  A    between atoms: _68  and  _70
REMARK   30  A    between atoms: _70  and  _71
REMARK   31  A    between atoms: _74  and  _76
REMARK   32  A    between atoms: _76  and  _77
REMARK   33  A    between atoms: _76  and  _79
REMARK   34  A    between atoms: _79  and  _80
REMARK   35  A    between atoms: _83  and  _85
REMARK   36  A    between atoms: _85  and  _86
REMARK   37  A    between atoms: _85  and  _88
REMARK   38  A    between atoms: _88  and  _89
REMARK   39  A    between atoms: _92  and  _94
REMARK   40  A    between atoms: _94  and  _95
REMARK   41  A    between atoms: _94  and  _97
REMARK   42  A    between atoms: _97  and  _98
REMARK   43  A    between atoms: _101  and  _103
REMARK   44  A    between atoms: _103  and  _104
REMARK   45  A    between atoms: _103  and  _106
REMARK   46  A    between atoms: _109  and  _111
REMARK   47  A    between atoms: _111  and  _112
REMARK   48  A    between atoms: _111  and  _114
REMARK   49  A    between atoms: _114  and  _115
REMARK   50  A    between atoms: _115  and  _116
REMARK   51  A    between atoms: _116  and  _117
REMARK   52  A    between atoms: _117  and  _118
REMARK   53  A    between atoms: _122  and  _124
REMARK   54  A    between atoms: _124  and  _125
REMARK   55  A    between atoms: _124  and  _127
REMARK   56  A    between atoms: _127  and  _128
REMARK   57  A    between atoms: _128  and  _129
REMARK   58  A    between atoms: _131  and  _133
REMARK   59  A    between atoms: _133  and  _134
REMARK   60  A    between atoms: _133  and  _136
REMARK   61  A    between atoms: _136  and  _137
REMARK   62  A    between atoms: _140  and  _142
REMARK   63  A    between atoms: _142  and  _143
REMARK   64  A    between atoms: _145  and  _147
REMARK   65  A    between atoms: _147  and  _148
REMARK   66  A    between atoms: _150  and  _152
REMARK   67  A    between atoms: _152  and  _153
REMARK   68  A    between atoms: _152  and  _155
REMARK   69  A    between atoms: _155  and  _156
REMARK   70  A    between atoms: _159  and  _161
REMARK   71  A    between atoms: _161  and  _162
REMARK   72  A    between atoms: _164  and  _166
REMARK   73  A    between atoms: _166  and  _167
REMARK   74  A    between atoms: _169  and  _171
REMARK   75  A    between atoms: _171  and  _172
REMARK   76  A    between atoms: _171  and  _174
REMARK   77  A    between atoms: _174  and  _175
REMARK   78  A    between atoms: _181  and  _183
REMARK   79  A    between atoms: _183  and  _184
REMARK   80  A    between atoms: _183  and  _186
REMARK   81  A    between atoms: _186  and  _187
REMARK   82  A    between atoms: _190  and  _192
REMARK   83  A    between atoms: _192  and  _193
REMARK   84  A    between atoms: _192  and  _195
REMARK   85  A    between atoms: _198  and  _200
REMARK   86  A    between atoms: _200  and  _201
REMARK   87  A    between atoms: _200  and  _203
REMARK   88  A    between atoms: _203  and  _204
REMARK   89  A    between atoms: _207  and  _209
REMARK   90  A    between atoms: _209  and  _210
REMARK   91  A    between atoms: _209  and  _212
REMARK   92  A    between atoms: _212  and  _213
REMARK   93  A    between atoms: _217  and  _218
REMARK   94  A    between atoms: _223  and  _225
REMARK   95  A    between atoms: _225  and  _226
REMARK   96  A    between atoms: _229  and  _231
REMARK   97  A    between atoms: _231  and  _232
REMARK   98  A    between atoms: _231  and  _234
REMARK   99  A    between atoms: _234  and  _235
REMARK  100  A    between atoms: _240  and  _242
REMARK  101  A    between atoms: _242  and  _243
REMARK  102  A    between atoms: _242  and  _245
REMARK  103  A    between atoms: _245  and  _246
REMARK  104  A    between atoms: _249  and  _251
REMARK  105  A    between atoms: _251  and  _252
REMARK  106  A    between atoms: _251  and  _254
REMARK  107  A    between atoms: _254  and  _255
REMARK  108  A    between atoms: _258  and  _260
REMARK  109  A    between atoms: _260  and  _261
REMARK  110  A    between atoms: _263  and  _265
REMARK  111  A    between atoms: _265  and  _266
REMARK  112  A    between atoms: _265  and  _268
REMARK  113  A    between atoms: _268  and  _269
REMARK  114  A    between atoms: _269  and  _270
REMARK  115  A    between atoms: _270  and  _271
REMARK  116  A    between atoms: _280  and  _282
REMARK  117  A    between atoms: _282  and  _283
REMARK  118  A    between atoms: _282  and  _285
REMARK  119  A    between atoms: _285  and  _286
REMARK  120  A    between atoms: _286  and  _287
REMARK  121  A    between atoms: _287  and  _288
REMARK  122  A    between atoms: _297  and  _299
REMARK  123  A    between atoms: _299  and  _300
REMARK  124  A    between atoms: _299  and  _302
REMARK  125  A    between atoms: _302  and  _303
REMARK  126  A    between atoms: _306  and  _308
REMARK  127  A    between atoms: _308  and  _309
REMARK  128  A    between atoms: _308  and  _311
REMARK  129  A    between atoms: _311  and  _312
REMARK  130  A    between atoms: _315  and  _317
REMARK  131  A    between atoms: _317  and  _318
REMARK  132  A    between atoms: _317  and  _320
REMARK  133  A    between atoms: _320  and  _321
REMARK  134  A    between atoms: _324  and  _326
REMARK  135  A    between atoms: _326  and  _327
REMARK  136  A    between atoms: _326  and  _329
REMARK  137  A    between atoms: _329  and  _330
REMARK  138  A    between atoms: _333  and  _335
REMARK  139  A    between atoms: _335  and  _336
REMARK  140  A    between atoms: _338  and  _340
REMARK  141  A    between atoms: _340  and  _341
REMARK  142  A    between atoms: _344  and  _346
REMARK  143  A    between atoms: _346  and  _347
REMARK  144  A    between atoms: _346  and  _349
REMARK  145  A    between atoms: _349  and  _350
REMARK  146  A    between atoms: _353  and  _355
REMARK  147  A    between atoms: _355  and  _356
REMARK  148  A    between atoms: _355  and  _358
REMARK  149  A    between atoms: _358  and  _359
REMARK  150  A    between atoms: _362  and  _364
REMARK  151  A    between atoms: _364  and  _365
REMARK  152  A    between atoms: _364  and  _367
REMARK  153  A    between atoms: _367  and  _368
REMARK  154  A    between atoms: _371  and  _373
REMARK  155  A    between atoms: _373  and  _374
REMARK  156  A    between atoms: _373  and  _376
REMARK  157  A    between atoms: _379  and  _381
REMARK  158  A    between atoms: _381  and  _382
REMARK  159  A    between atoms: _381  and  _384
REMARK  160  A    between atoms: _384  and  _385
REMARK  161  A    between atoms: _388  and  _390
REMARK  162  A    between atoms: _390  and  _391
REMARK  163  A    between atoms: _390  and  _393
REMARK  164  A    between atoms: _393  and  _394
REMARK  165  A    between atoms: _394  and  _395
REMARK  166  A    between atoms: _395  and  _396
REMARK  167  A    between atoms: _396  and  _397
REMARK  168  A    between atoms: _401  and  _403
REMARK  169  A    between atoms: _403  and  _404
REMARK  170  A    between atoms: _403  and  _406
REMARK  171  A    between atoms: _406  and  _407
REMARK  172  A    between atoms: _407  and  _408
REMARK  173  A    between atoms: _410  and  _412
REMARK  174  A    between atoms: _412  and  _413
REMARK  175  A    between atoms: _412  and  _415
REMARK  176  A    between atoms: _415  and  _416
REMARK  177  A    between atoms: _419  and  _421
REMARK  178  A    between atoms: _421  and  _422
REMARK  179  A    between atoms: _424  and  _426
REMARK  180  A    between atoms: _426  and  _427
REMARK  181  A    between atoms: _429  and  _431
REMARK  182  A    between atoms: _431  and  _432
REMARK  183  A    between atoms: _431  and  _434
REMARK  184  A    between atoms: _434  and  _435
REMARK  185  A    between atoms: _438  and  _440
REMARK  186  A    between atoms: _440  and  _441
REMARK  187  A    between atoms: _443  and  _445
REMARK  188  A    between atoms: _445  and  _446
REMARK  189  A    between atoms: _448  and  _450
REMARK  190  A    between atoms: _450  and  _451
REMARK  191  A    between atoms: _450  and  _453
REMARK  192  A    between atoms: _453  and  _454
REMARK  193  A    between atoms: _460  and  _462
REMARK  194  A    between atoms: _462  and  _463
REMARK  195  A    between atoms: _462  and  _465
REMARK  196  A    between atoms: _465  and  _466
REMARK  197  A    between atoms: _469  and  _471
REMARK  198  A    between atoms: _471  and  _472
REMARK  199  A    between atoms: _471  and  _474
REMARK  200  A    between atoms: _477  and  _479
REMARK  201  A    between atoms: _479  and  _480
REMARK  202  A    between atoms: _479  and  _482
REMARK  203  A    between atoms: _482  and  _483
REMARK  204  A    between atoms: _486  and  _488
REMARK  205  A    between atoms: _488  and  _489
REMARK  206  A    between atoms: _488  and  _491
REMARK  207  A    between atoms: _491  and  _492
REMARK  208  A    between atoms: _496  and  _497
REMARK  209  A    between atoms: _502  and  _504
REMARK  210  A    between atoms: _504  and  _505
REMARK  211  A    between atoms: _508  and  _510
REMARK  212  A    between atoms: _510  and  _511
REMARK  213  A    between atoms: _510  and  _513
REMARK  214  A    between atoms: _513  and  _514
REMARK  215  A    between atoms: _519  and  _521
REMARK  216  A    between atoms: _521  and  _522
REMARK  217  A    between atoms: _521  and  _524
REMARK  218  A    between atoms: _524  and  _525
REMARK  219  A    between atoms: _528  and  _530
REMARK  220  A    between atoms: _530  and  _531
REMARK  221  A    between atoms: _530  and  _533
REMARK  222  A    between atoms: _533  and  _534
REMARK  223  A    between atoms: _537  and  _539
REMARK  224  A    between atoms: _539  and  _540
REMARK  225  A    between atoms: _542  and  _544
REMARK  226  A    between atoms: _544  and  _545
REMARK  227  A    between atoms: _544  and  _547
REMARK  228  A    between atoms: _547  and  _548
REMARK  229  A    between atoms: _548  and  _549
REMARK  230  A    between atoms: _549  and  _550
REMARK  231  A    between atoms: _559  and  _561
REMARK  232  A    between atoms: _561  and  _562
REMARK  233  A    between atoms: _561  and  _564
REMARK  234  A    between atoms: _564  and  _565
REMARK                            x       y       z     vdW  Elec       q    Type
REMARK                         _______ _______ _______ _____ _____    ______ ____
ROOT
ATOM      1  O   HOH     1      30.488  18.572   1.672  0.00  0.00    +0.000 OA
ENDROOT
TORSDOF 0
REMARK  Name = ../refined-set-2016/1sdv/1sdv_pocket.pdb
REMARK  234 active torsions:
REMARK  status: ('A' for Active; 'I' for Inactive)
REMARK    1  A    between atoms: _1  and  _3
REMARK    2  A    between atoms: _3  and  _4
REMARK    3  A    between atoms: _3  and  _6
REMARK    4  A    between atoms: _6  and  _7
REMARK    5  A    between atoms: _7  and  _8
REMARK    6  A    between atoms: _8  and  _9
REMARK    7  A    between atoms: _18  and  _20
REMARK    8  A    between atoms: _20  and  _21
REMARK    9  A    between atoms: _20  and  _23
REMARK   10  A    between atoms: _23  and  _24
REMARK   11  A    between atoms: _27  and  _29
REMARK   12  A    between atoms: _29  and  _30
REMARK   13  A    between atoms: _29  and  _32
REMARK   14  A    between atoms: _32  and  _33
REMARK   15  A    between atoms: _36  and  _38
REMARK   16  A    between atoms: _38  and  _39
REMARK   17  A    between atoms: _38  and  _41
REMARK   18  A    between atoms: _41  and  _42
REMARK   19  A    between atoms: _45  and  _47
REMARK   20  A    between atoms: _47  and  _48
REMARK   21  A    between atoms: _47  and  _50
REMARK   22  A    between atoms: _50  and  _51
REMARK   23  A    between atoms: _54  and  _56
REMARK   24  A    between atoms: _56  and  _57
REMARK   25  A    between atoms: _56  and  _59
REMARK   26  A    between atoms: _59  and  _60
REMARK   27  A    between atoms: _63  and  _65
REMARK   28  A    between atoms: _65  and  _66
REMARK   29  A    between atoms: _68  and  _70
REMARK   30  A    between atoms: _70  and  _71
REMARK   31  A    between atoms: _74  and  _76
REMARK   32  A    between atoms: _76  and  _77
REMARK   33  A    between atoms: _76  and  _79
REMARK   34  A    between atoms: _79  and  _80
REMARK   35  A    between atoms: _83  and  _85
REMARK   36  A    between atoms: _85  and  _86
REMARK   37  A    between atoms: _85  and  _88
REMARK   38  A    between atoms: _88  and  _89
REMARK   39  A    between atoms: _92  and  _94
REMARK   40  A    between atoms: _94  and  _95
REMARK   41  A    between atoms: _94  and  _97
REMARK   42  A    between atoms: _97  and  _98
REMARK   43  A    between atoms: _101  and  _103
REMARK   44  A    between atoms: _103  and  _104
REMARK   45  A    between atoms: _103  and  _106
REMARK   46  A    between atoms: _109  and  _111
REMARK   47  A    between atoms: _111  and  _112
REMARK   48  A    between atoms: _111  and  _114
REMARK   49  A    between atoms: _114  and  _115
REMARK   50  A    between atoms: _115  and  _116
REMARK   51  A    between atoms: _116  and  _117
REMARK   52  A    between atoms: _117  and  _118
REMARK   53  A    between atoms: _122  and  _124
REMARK   54  A    between atoms: _124  and  _125
REMARK   55  A    between atoms: _124  and  _127
REMARK   56  A    between atoms: _127  and  _128
REMARK   57  A    between atoms: _128  and  _129
REMARK   58  A    between atoms: _131  and  _133
REMARK   59  A    between atoms: _133  and  _134
REMARK   60  A    between atoms: _133  and  _136
REMARK   61  A    between atoms: _136  and  _137
REMARK   62  A    between atoms: _140  and  _142
REMARK   63  A    between atoms: _142  and  _143
REMARK   64  A    between atoms: _145  and  _147
REMARK   65  A    between atoms: _147  and  _148
REMARK   66  A    between atoms: _150  and  _152
REMARK   67  A    between atoms: _152  and  _153
REMARK   68  A    between atoms: _152  and  _155
REMARK   69  A    between atoms: _155  and  _156
REMARK   70  A    between atoms: _159  and  _161
REMARK   71  A    between atoms: _161  and  _162
REMARK   72  A    between atoms: _164  and  _166
REMARK   73  A    between atoms: _166  and  _167
REMARK   74  A    between atoms: _169  and  _171
REMARK   75  A    between atoms: _171  and  _172
REMARK   76  A    between atoms: _171  and  _174
REMARK   77  A    between atoms: _174  and  _175
REMARK   78  A    between atoms: _181  and  _183
REMARK   79  A    between atoms: _183  and  _184
REMARK   80  A    between atoms: _183  and  _186
REMARK   81  A    between atoms: _186  and  _187
REMARK   82  A    between atoms: _190  and  _192
REMARK   83  A    between atoms: _192  and  _193
REMARK   84  A    between atoms: _192  and  _195
REMARK   85  A    between atoms: _198  and  _200
REMARK   86  A    between atoms: _200  and  _201
REMARK   87  A    between atoms: _200  and  _203
REMARK   88  A    between atoms: _203  and  _204
REMARK   89  A    between atoms: _207  and  _209
REMARK   90  A    between atoms: _209  and  _210
REMARK   91  A    between atoms: _209  and  _212
REMARK   92  A    between atoms: _212  and  _213
REMARK   93  A    between atoms: _217  and  _218
REMARK   94  A    between atoms: _223  and  _225
REMARK   95  A    between atoms: _225  and  _226
REMARK   96  A    between atoms: _229  and  _231
REMARK   97  A    between atoms: _231  and  _232
REMARK   98  A    between atoms: _231  and  _234
REMARK   99  A    between atoms: _234  and  _235
REMARK  100  A    between atoms: _240  and  _242
REMARK  101  A    between atoms: _242  and  _243
REMARK  102  A    between atoms: _242  and  _245
REMARK  103  A    between atoms: _245  and  _246
REMARK  104  A    between atoms: _249  and  _251
REMARK  105  A    between atoms: _251  and  _252
REMARK  106  A    between atoms: _251  and  _254
REMARK  107  A    between atoms: _254  and  _255
REMARK  108  A    between atoms: _258  and  _260
REMARK  109  A    between atoms: _260  and  _261
REMARK  110  A    between atoms: _263  and  _265
REMARK  111  A    between atoms: _265  and  _266
REMARK  112  A    between atoms: _265  and  _268
REMARK  113  A    between atoms: _268  and  _269
REMARK  114  A    between atoms: _269  and  _270
REMARK  115  A    between atoms: _270  and  _271
REMARK  116  A    between atoms: _280  and  _282
REMARK  117  A    between atoms: _282  and  _283
REMARK  118  A    between atoms: _282  and  _285
REMARK  119  A    between atoms: _285  and  _286
REMARK  120  A    between atoms: _286  and  _287
REMARK  121  A    between atoms: _287  and  _288
REMARK  122  A    between atoms: _297  and  _299
REMARK  123  A    between atoms: _299  and  _300
REMARK  124  A    between atoms: _299  and  _302
REMARK  125  A    between atoms: _302  and  _303
REMARK  126  A    between atoms: _306  and  _308
REMARK  127  A    between atoms: _308  and  _309
REMARK  128  A    between atoms: _308  and  _311
REMARK  129  A    between atoms: _311  and  _312
REMARK  130  A    between atoms: _315  and  _317
REMARK  131  A    between atoms: _317  and  _318
REMARK  132  A    between atoms: _317  and  _320
REMARK  133  A    between atoms: _320  and  _321
REMARK  134  A    between atoms: _324  and  _326
REMARK  135  A    between atoms: _326  and  _327
REMARK  136  A    between atoms: _326  and  _329
REMARK  137  A    between atoms: _329  and  _330
REMARK  138  A    between atoms: _333  and  _335
REMARK  139  A    between atoms: _335  and  _336
REMARK  140  A    between atoms: _338  and  _340
REMARK  141  A    between atoms: _340  and  _341
REMARK  142  A    between atoms: _344  and  _346
REMARK  143  A    between atoms: _346  and  _347
REMARK  144  A    between atoms: _346  and  _349
REMARK  145  A    between atoms: _349  and  _350
REMARK  146  A    between atoms: _353  and  _355
REMARK  147  A    between atoms: _355  and  _356
REMARK  148  A    between atoms: _355  and  _358
REMARK  149  A    between atoms: _358  and  _359
REMARK  150  A    between atoms: _362  and  _364
REMARK  151  A    between atoms: _364  and  _365
REMARK  152  A    between atoms: _364  and  _367
REMARK  153  A    between atoms: _367  and  _368
REMARK  154  A    between atoms: _371  and  _373
REMARK  155  A    between atoms: _373  and  _374
REMARK  156  A    between atoms: _373  and  _376
REMARK  157  A    between atoms: _379  and  _381
REMARK  158  A    between atoms: _381  and  _382
REMARK  159  A    between atoms: _381  and  _384
REMARK  160  A    between atoms: _384  and  _385
REMARK  161  A    between atoms: _388  and  _390
REMARK  162  A    between atoms: _390  and  _391
REMARK  163  A    between atoms: _390  and  _393
REMARK  164  A    between atoms: _393  and  _394
REMARK  165  A    between atoms: _394  and  _395
REMARK  166  A    between atoms: _395  and  _396
REMARK  167  A    between atoms: _396  and  _397
REMARK  168  A    between atoms: _401  and  _403
REMARK  169  A    between atoms: _403  and  _404
REMARK  170  A    between atoms: _403  and  _406
REMARK  171  A    between atoms: _406  and  _407
REMARK  172  A    between atoms: _407  and  _408
REMARK  173  A    between atoms: _410  and  _412
REMARK  174  A    between atoms: _412  and  _413
REMARK  175  A    between atoms: _412  and  _415
REMARK  176  A    between atoms: _415  and  _416
REMARK  177  A    between atoms: _419  and  _421
REMARK  178  A    between atoms: _421  and  _422
REMARK  179  A    between atoms: _424  and  _426
REMARK  180  A    between atoms: _426  and  _427
REMARK  181  A    between atoms: _429  and  _431
REMARK  182  A    between atoms: _431  and  _432
REMARK  183  A    between atoms: _431  and  _434
REMARK  184  A    between atoms: _434  and  _435
REMARK  185  A    between atoms: _438  and  _440
REMARK  186  A    between atoms: _440  and  _441
REMARK  187  A    between atoms: _443  and  _445
REMARK  188  A    between atoms: _445  and  _446
REMARK  189  A    between atoms: _448  and  _450
REMARK  190  A    between atoms: _450  and  _451
REMARK  191  A    between atoms: _450  and  _453
REMARK  192  A    between atoms: _453  and  _454
REMARK  193  A    between atoms: _460  and  _462
REMARK  194  A    between atoms: _462  and  _463
REMARK  195  A    between atoms: _462  and  _465
REMARK  196  A    between atoms: _465  and  _466
REMARK  197  A    between atoms: _469  and  _471
REMARK  198  A    between atoms: _471  and  _472
REMARK  199  A    between atoms: _471  and  _474
REMARK  200  A    between atoms: _477  and  _479
REMARK  201  A    between atoms: _479  and  _480
REMARK  202  A    between atoms: _479  and  _482
REMARK  203  A    between atoms: _482  and  _483
REMARK  204  A    between atoms: _486  and  _488
REMARK  205  A    between atoms: _488  and  _489
REMARK  206  A    between atoms: _488  and  _491
REMARK  207  A    between atoms: _491  and  _492
REMARK  208  A    between atoms: _496  and  _497
REMARK  209  A    between atoms: _502  and  _504
REMARK  210  A    between atoms: _504  and  _505
REMARK  211  A    between atoms: _508  and  _510
REMARK  212  A    between atoms: _510  and  _511
REMARK  213  A    between atoms: _510  and  _513
REMARK  214  A    between atoms: _513  and  _514
REMARK  215  A    between atoms: _519  and  _521
REMARK  216  A    between atoms: _521  and  _522
REMARK  217  A    between atoms: _521  and  _524
REMARK  218  A    between atoms: _524  and  _525
REMARK  219  A    between atoms: _528  and  _530
REMARK  220  A    between atoms: _530  and  _531
REMARK  221  A    between atoms: _530  and  _533
REMARK  222  A    between atoms: _533  and  _534
REMARK  223  A    between atoms: _537  and  _539
REMARK  224  A    between atoms: _539  and  _540
REMARK  225  A    between atoms: _542  and  _544
REMARK  226  A    between atoms: _544  and  _545
REMARK  227  A    between atoms: _544  and  _547
REMARK  228  A    between atoms: _547  and  _548
REMARK  229  A    between atoms: _548  and  _549
REMARK  230  A    between atoms: _549  and  _550
REMARK  231  A    between atoms: _559  and  _561
REMARK  232  A    between atoms: _561  and  _562
REMARK  233  A    between atoms: _561  and  _564
REMARK  234  A    between atoms: _564  and  _565
REMARK                            x       y       z     vdW  Elec       q    Type
REMARK                         _______ _______ _______ _____ _____    ______ ____
ROOT
ATOM      1  O   HOH     1      14.506  23.582   4.600  0.00  0.00    +0.000 OA
ENDROOT
TORSDOF 0
REMARK  Name = ../refined-set-2016/1sdv/1sdv_pocket.pdb
REMARK  234 active torsions:
REMARK  status: ('A' for Active; 'I' for Inactive)
REMARK    1  A    between atoms: _1  and  _3
REMARK    2  A    between atoms: _3  and  _4
REMARK    3  A    between atoms: _3  and  _6
REMARK    4  A    between atoms: _6  and  _7
REMARK    5  A    between atoms: _7  and  _8
REMARK    6  A    between atoms: _8  and  _9
REMARK    7  A    between atoms: _18  and  _20
REMARK    8  A    between atoms: _20  and  _21
REMARK    9  A    between atoms: _20  and  _23
REMARK   10  A    between atoms: _23  and  _24
REMARK   11  A    between atoms: _27  and  _29
REMARK   12  A    between atoms: _29  and  _30
REMARK   13  A    between atoms: _29  and  _32
REMARK   14  A    between atoms: _32  and  _33
REMARK   15  A    between atoms: _36  and  _38
REMARK   16  A    between atoms: _38  and  _39
REMARK   17  A    between atoms: _38  and  _41
REMARK   18  A    between atoms: _41  and  _42
REMARK   19  A    between atoms: _45  and  _47
REMARK   20  A    between atoms: _47  and  _48
REMARK   21  A    between atoms: _47  and  _50
REMARK   22  A    between atoms: _50  and  _51
REMARK   23  A    between atoms: _54  and  _56
REMARK   24  A    between atoms: _56  and  _57
REMARK   25  A    between atoms: _56  and  _59
REMARK   26  A    between atoms: _59  and  _60
REMARK   27  A    between atoms: _63  and  _65
REMARK   28  A    between atoms: _65  and  _66
REMARK   29  A    between atoms: _68  and  _70
REMARK   30  A    between atoms: _70  and  _71
REMARK   31  A    between atoms: _74  and  _76
REMARK   32  A    between atoms: _76  and  _77
REMARK   33  A    between atoms: _76  and  _79
REMARK   34  A    between atoms: _79  and  _80
REMARK   35  A    between atoms: _83  and  _85
REMARK   36  A    between atoms: _85  and  _86
REMARK   37  A    between atoms: _85  and  _88
REMARK   38  A    between atoms: _88  and  _89
REMARK   39  A    between atoms: _92  and  _94
REMARK   40  A    between atoms: _94  and  _95
REMARK   41  A    between atoms: _94  and  _97
REMARK   42  A    between atoms: _97  and  _98
REMARK   43  A    between atoms: _101  and  _103
REMARK   44  A    between atoms: _103  and  _104
REMARK   45  A    between atoms: _103  and  _106
REMARK   46  A    between atoms: _109  and  _111
REMARK   47  A    between atoms: _111  and  _112
REMARK   48  A    between atoms: _111  and  _114
REMARK   49  A    between atoms: _114  and  _115
REMARK   50  A    between atoms: _115  and  _116
REMARK   51  A    between atoms: _116  and  _117
REMARK   52  A    between atoms: _117  and  _118
REMARK   53  A    between atoms: _122  and  _124
REMARK   54  A    between atoms: _124  and  _125
REMARK   55  A    between atoms: _124  and  _127
REMARK   56  A    between atoms: _127  and  _128
REMARK   57  A    between atoms: _128  and  _129
REMARK   58  A    between atoms: _131  and  _133
REMARK   59  A    between atoms: _133  and  _134
REMARK   60  A    between atoms: _133  and  _136
REMARK   61  A    between atoms: _136  and  _137
REMARK   62  A    between atoms: _140  and  _142
REMARK   63  A    between atoms: _142  and  _143
REMARK   64  A    between atoms: _145  and  _147
REMARK   65  A    between atoms: _147  and  _148
REMARK   66  A    between atoms: _150  and  _152
REMARK   67  A    between atoms: _152  and  _153
REMARK   68  A    between atoms: _152  and  _155
REMARK   69  A    between atoms: _155  and  _156
REMARK   70  A    between atoms: _159  and  _161
REMARK   71  A    between atoms: _161  and  _162
REMARK   72  A    between atoms: _164  and  _166
REMARK   73  A    between atoms: _166  and  _167
REMARK   74  A    between atoms: _169  and  _171
REMARK   75  A    between atoms: _171  and  _172
REMARK   76  A    between atoms: _171  and  _174
REMARK   77  A    between atoms: _174  and  _175
REMARK   78  A    between atoms: _181  and  _183
REMARK   79  A    between atoms: _183  and  _184
REMARK   80  A    between atoms: _183  and  _186
REMARK   81  A    between atoms: _186  and  _187
REMARK   82  A    between atoms: _190  and  _192
REMARK   83  A    between atoms: _192  and  _193
REMARK   84  A    between atoms: _192  and  _195
REMARK   85  A    between atoms: _198  and  _200
REMARK   86  A    between atoms: _200  and  _201
REMARK   87  A    between atoms: _200  and  _203
REMARK   88  A    between atoms: _203  and  _204
REMARK   89  A    between atoms: _207  and  _209
REMARK   90  A    between atoms: _209  and  _210
REMARK   91  A    between atoms: _209  and  _212
REMARK   92  A    between atoms: _212  and  _213
REMARK   93  A    between atoms: _217  and  _218
REMARK   94  A    between atoms: _223  and  _225
REMARK   95  A    between atoms: _225  and  _226
REMARK   96  A    between atoms: _229  and  _231
REMARK   97  A    between atoms: _231  and  _232
REMARK   98  A    between atoms: _231  and  _234
REMARK   99  A    between atoms: _234  and  _235
REMARK  100  A    between atoms: _240  and  _242
REMARK  101  A    between atoms: _242  and  _243
REMARK  102  A    between atoms: _242  and  _245
REMARK  103  A    between atoms: _245  and  _246
REMARK  104  A    between atoms: _249  and  _251
REMARK  105  A    between atoms: _251  and  _252
REMARK  106  A    between atoms: _251  and  _254
REMARK  107  A    between atoms: _254  and  _255
REMARK  108  A    between atoms: _258  and  _260
REMARK  109  A    between atoms: _260  and  _261
REMARK  110  A    between atoms: _263  and  _265
REMARK  111  A    between atoms: _265  and  _266
REMARK  112  A    between atoms: _265  and  _268
REMARK  113  A    between atoms: _268  and  _269
REMARK  114  A    between atoms: _269  and  _270
REMARK  115  A    between atoms: _270  and  _271
REMARK  116  A    between atoms: _280  and  _282
REMARK  117  A    between atoms: _282  and  _283
REMARK  118  A    between atoms: _282  and  _285
REMARK  119  A    between atoms: _285  and  _286
REMARK  120  A    between atoms: _286  and  _287
REMARK  121  A    between atoms: _287  and  _288
REMARK  122  A    between atoms: _297  and  _299
REMARK  123  A    between atoms: _299  and  _300
REMARK  124  A    between atoms: _299  and  _302
REMARK  125  A    between atoms: _302  and  _303
REMARK  126  A    between atoms: _306  and  _308
REMARK  127  A    between atoms: _308  and  _309
REMARK  128  A    between atoms: _308  and  _311
REMARK  129  A    between atoms: _311  and  _312
REMARK  130  A    between atoms: _315  and  _317
REMARK  131  A    between atoms: _317  and  _318
REMARK  132  A    between atoms: _317  and  _320
REMARK  133  A    between atoms: _320  and  _321
REMARK  134  A    between atoms: _324  and  _326
REMARK  135  A    between atoms: _326  and  _327
REMARK  136  A    between atoms: _326  and  _329
REMARK  137  A    between atoms: _329  and  _330
REMARK  138  A    between atoms: _333  and  _335
REMARK  139  A    between atoms: _335  and  _336
REMARK  140  A    between atoms: _338  and  _340
REMARK  141  A    between atoms: _340  and  _341
REMARK  142  A    between atoms: _344  and  _346
REMARK  143  A    between atoms: _346  and  _347
REMARK  144  A    between atoms: _346  and  _349
REMARK  145  A    between atoms: _349  and  _350
REMARK  146  A    between atoms: _353  and  _355
REMARK  147  A    between atoms: _355  and  _356
REMARK  148  A    between atoms: _355  and  _358
REMARK  149  A    between atoms: _358  and  _359
REMARK  150  A    between atoms: _362  and  _364
REMARK  151  A    between atoms: _364  and  _365
REMARK  152  A    between atoms: _364  and  _367
REMARK  153  A    between atoms: _367  and  _368
REMARK  154  A    between atoms: _371  and  _373
REMARK  155  A    between atoms: _373  and  _374
REMARK  156  A    between atoms: _373  and  _376
REMARK  157  A    between atoms: _379  and  _381
REMARK  158  A    between atoms: _381  and  _382
REMARK  159  A    between atoms: _381  and  _384
REMARK  160  A    between atoms: _384  and  _385
REMARK  161  A    between atoms: _388  and  _390
REMARK  162  A    between atoms: _390  and  _391
REMARK  163  A    between atoms: _390  and  _393
REMARK  164  A    between atoms: _393  and  _394
REMARK  165  A    between atoms: _394  and  _395
REMARK  166  A    between atoms: _395  and  _396
REMARK  167  A    between atoms: _396  and  _397
REMARK  168  A    between atoms: _401  and  _403
REMARK  169  A    between atoms: _403  and  _404
REMARK  170  A    between atoms: _403  and  _406
REMARK  171  A    between atoms: _406  and  _407
REMARK  172  A    between atoms: _407  and  _408
REMARK  173  A    between atoms: _410  and  _412
REMARK  174  A    between atoms: _412  and  _413
REMARK  175  A    between atoms: _412  and  _415
REMARK  176  A    between atoms: _415  and  _416
REMARK  177  A    between atoms: _419  and  _421
REMARK  178  A    between atoms: _421  and  _422
REMARK  179  A    between atoms: _424  and  _426
REMARK  180  A    between atoms: _426  and  _427
REMARK  181  A    between atoms: _429  and  _431
REMARK  182  A    between atoms: _431  and  _432
REMARK  183  A    between atoms: _431  and  _434
REMARK  184  A    between atoms: _434  and  _435
REMARK  185  A    between atoms: _438  and  _440
REMARK  186  A    between atoms: _440  and  _441
REMARK  187  A    between atoms: _443  and  _445
REMARK  188  A    between atoms: _445  and  _446
REMARK  189  A    between atoms: _448  and  _450
REMARK  190  A    between atoms: _450  and  _451
REMARK  191  A    between atoms: _450  and  _453
REMARK  192  A    between atoms: _453  and  _454
REMARK  193  A    between atoms: _460  and  _462
REMARK  194  A    between atoms: _462  and  _463
REMARK  195  A    between atoms: _462  and  _465
REMARK  196  A    between atoms: _465  and  _466
REMARK  197  A    between atoms: _469  and  _471
REMARK  198  A    between atoms: _471  and  _472
REMARK  199  A    between atoms: _471  and  _474
REMARK  200  A    between atoms: _477  and  _479
REMARK  201  A    between atoms: _479  and  _480
REMARK  202  A    between atoms: _479  and  _482
REMARK  203  A    between atoms: _482  and  _483
REMARK  204  A    between atoms: _486  and  _488
REMARK  205  A    between atoms: _488  and  _489
REMARK  206  A    between atoms: _488  and  _491
REMARK  207  A    between atoms: _491  and  _492
REMARK  208  A    between atoms: _496  and  _497
REMARK  209  A    between atoms: _502  and  _504
REMARK  210  A    between atoms: _504  and  _505
REMARK  211  A    between atoms: _508  and  _510
REMARK  212  A    between atoms: _510  and  _511
REMARK  213  A    between atoms: _510  and  _513
REMARK  214  A    between atoms: _513  and  _514
REMARK  215  A    between atoms: _519  and  _521
REMARK  216  A    between atoms: _521  and  _522
REMARK  217  A    between atoms: _521  and  _524
REMARK  218  A    between atoms: _524  and  _525
REMARK  219  A    between atoms: _528  and  _530
REMARK  220  A    between atoms: _530  and  _531
REMARK  221  A    between atoms: _530  and  _533
REMARK  222  A    between atoms: _533  and  _534
REMARK  223  A    between atoms: _537  and  _539
REMARK  224  A    between atoms: _539  and  _540
REMARK  225  A    between atoms: _542  and  _544
REMARK  226  A    between atoms: _544  and  _545
REMARK  227  A    between atoms: _544  and  _547
REMARK  228  A    between atoms: _547  and  _548
REMARK  229  A    between atoms: _548  and  _549
REMARK  230  A    between atoms: _549  and  _550
REMARK  231  A    between atoms: _559  and  _561
REMARK  232  A    between atoms: _561  and  _562
REMARK  233  A    between atoms: _561  and  _564
REMARK  234  A    between atoms: _564  and  _565
REMARK                            x       y       z     vdW  Elec       q    Type
REMARK                         _______ _______ _______ _____ _____    ______ ____
ROOT
ATOM      1  O   HOH     1      26.677  20.888   2.491  0.00  0.00    +0.000 OA
ENDROOT
TORSDOF 0
REMARK  Name = ../refined-set-2016/1sdv/1sdv_pocket.pdb
REMARK  234 active torsions:
REMARK  status: ('A' for Active; 'I' for Inactive)
REMARK    1  A    between atoms: _1  and  _3
REMARK    2  A    between atoms: _3  and  _4
REMARK    3  A    between atoms: _3  and  _6
REMARK    4  A    between atoms: _6  and  _7
REMARK    5  A    between atoms: _7  and  _8
REMARK    6  A    between atoms: _8  and  _9
REMARK    7  A    between atoms: _18  and  _20
REMARK    8  A    between atoms: _20  and  _21
REMARK    9  A    between atoms: _20  and  _23
REMARK   10  A    between atoms: _23  and  _24
REMARK   11  A    between atoms: _27  and  _29
REMARK   12  A    between atoms: _29  and  _30
REMARK   13  A    between atoms: _29  and  _32
REMARK   14  A    between atoms: _32  and  _33
REMARK   15  A    between atoms: _36  and  _38
REMARK   16  A    between atoms: _38  and  _39
REMARK   17  A    between atoms: _38  and  _41
REMARK   18  A    between atoms: _41  and  _42
REMARK   19  A    between atoms: _45  and  _47
REMARK   20  A    between atoms: _47  and  _48
REMARK   21  A    between atoms: _47  and  _50
REMARK   22  A    between atoms: _50  and  _51
REMARK   23  A    between atoms: _54  and  _56
REMARK   24  A    between atoms: _56  and  _57
REMARK   25  A    between atoms: _56  and  _59
REMARK   26  A    between atoms: _59  and  _60
REMARK   27  A    between atoms: _63  and  _65
REMARK   28  A    between atoms: _65  and  _66
REMARK   29  A    between atoms: _68  and  _70
REMARK   30  A    between atoms: _70  and  _71
REMARK   31  A    between atoms: _74  and  _76
REMARK   32  A    between atoms: _76  and  _77
REMARK   33  A    between atoms: _76  and  _79
REMARK   34  A    between atoms: _79  and  _80
REMARK   35  A    between atoms: _83  and  _85
REMARK   36  A    between atoms: _85  and  _86
REMARK   37  A    between atoms: _85  and  _88
REMARK   38  A    between atoms: _88  and  _89
REMARK   39  A    between atoms: _92  and  _94
REMARK   40  A    between atoms: _94  and  _95
REMARK   41  A    between atoms: _94  and  _97
REMARK   42  A    between atoms: _97  and  _98
REMARK   43  A    between atoms: _101  and  _103
REMARK   44  A    between atoms: _103  and  _104
REMARK   45  A    between atoms: _103  and  _106
REMARK   46  A    between atoms: _109  and  _111
REMARK   47  A    between atoms: _111  and  _112
REMARK   48  A    between atoms: _111  and  _114
REMARK   49  A    between atoms: _114  and  _115
REMARK   50  A    between atoms: _115  and  _116
REMARK   51  A    between atoms: _116  and  _117
REMARK   52  A    between atoms: _117  and  _118
REMARK   53  A    between atoms: _122  and  _124
REMARK   54  A    between atoms: _124  and  _125
REMARK   55  A    between atoms: _124  and  _127
REMARK   56  A    between atoms: _127  and  _128
REMARK   57  A    between atoms: _128  and  _129
REMARK   58  A    between atoms: _131  and  _133
REMARK   59  A    between atoms: _133  and  _134
REMARK   60  A    between atoms: _133  and  _136
REMARK   61  A    between atoms: _136  and  _137
REMARK   62  A    between atoms: _140  and  _142
REMARK   63  A    between atoms: _142  and  _143
REMARK   64  A    between atoms: _145  and  _147
REMARK   65  A    between atoms: _147  and  _148
REMARK   66  A    between atoms: _150  and  _152
REMARK   67  A    between atoms: _152  and  _153
REMARK   68  A    between atoms: _152  and  _155
REMARK   69  A    between atoms: _155  and  _156
REMARK   70  A    between atoms: _159  and  _161
REMARK   71  A    between atoms: _161  and  _162
REMARK   72  A    between atoms: _164  and  _166
REMARK   73  A    between atoms: _166  and  _167
REMARK   74  A    between atoms: _169  and  _171
REMARK   75  A    between atoms: _171  and  _172
REMARK   76  A    between atoms: _171  and  _174
REMARK   77  A    between atoms: _174  and  _175
REMARK   78  A    between atoms: _181  and  _183
REMARK   79  A    between atoms: _183  and  _184
REMARK   80  A    between atoms: _183  and  _186
REMARK   81  A    between atoms: _186  and  _187
REMARK   82  A    between atoms: _190  and  _192
REMARK   83  A    between atoms: _192  and  _193
REMARK   84  A    between atoms: _192  and  _195
REMARK   85  A    between atoms: _198  and  _200
REMARK   86  A    between atoms: _200  and  _201
REMARK   87  A    between atoms: _200  and  _203
REMARK   88  A    between atoms: _203  and  _204
REMARK   89  A    between atoms: _207  and  _209
REMARK   90  A    between atoms: _209  and  _210
REMARK   91  A    between atoms: _209  and  _212
REMARK   92  A    between atoms: _212  and  _213
REMARK   93  A    between atoms: _217  and  _218
REMARK   94  A    between atoms: _223  and  _225
REMARK   95  A    between atoms: _225  and  _226
REMARK   96  A    between atoms: _229  and  _231
REMARK   97  A    between atoms: _231  and  _232
REMARK   98  A    between atoms: _231  and  _234
REMARK   99  A    between atoms: _234  and  _235
REMARK  100  A    between atoms: _240  and  _242
REMARK  101  A    between atoms: _242  and  _243
REMARK  102  A    between atoms: _242  and  _245
REMARK  103  A    between atoms: _245  and  _246
REMARK  104  A    between atoms: _249  and  _251
REMARK  105  A    between atoms: _251  and  _252
REMARK  106  A    between atoms: _251  and  _254
REMARK  107  A    between atoms: _254  and  _255
REMARK  108  A    between atoms: _258  and  _260
REMARK  109  A    between atoms: _260  and  _261
REMARK  110  A    between atoms: _263  and  _265
REMARK  111  A    between atoms: _265  and  _266
REMARK  112  A    between atoms: _265  and  _268
REMARK  113  A    between atoms: _268  and  _269
REMARK  114  A    between atoms: _269  and  _270
REMARK  115  A    between atoms: _270  and  _271
REMARK  116  A    between atoms: _280  and  _282
REMARK  117  A    between atoms: _282  and  _283
REMARK  118  A    between atoms: _282  and  _285
REMARK  119  A    between atoms: _285  and  _286
REMARK  120  A    between atoms: _286  and  _287
REMARK  121  A    between atoms: _287  and  _288
REMARK  122  A    between atoms: _297  and  _299
REMARK  123  A    between atoms: _299  and  _300
REMARK  124  A    between atoms: _299  and  _302
REMARK  125  A    between atoms: _302  and  _303
REMARK  126  A    between atoms: _306  and  _308
REMARK  127  A    between atoms: _308  and  _309
REMARK  128  A    between atoms: _308  and  _311
REMARK  129  A    between atoms: _311  and  _312
REMARK  130  A    between atoms: _315  and  _317
REMARK  131  A    between atoms: _317  and  _318
REMARK  132  A    between atoms: _317  and  _320
REMARK  133  A    between atoms: _320  and  _321
REMARK  134  A    between atoms: _324  and  _326
REMARK  135  A    between atoms: _326  and  _327
REMARK  136  A    between atoms: _326  and  _329
REMARK  137  A    between atoms: _329  and  _330
REMARK  138  A    between atoms: _333  and  _335
REMARK  139  A    between atoms: _335  and  _336
REMARK  140  A    between atoms: _338  and  _340
REMARK  141  A    between atoms: _340  and  _341
REMARK  142  A    between atoms: _344  and  _346
REMARK  143  A    between atoms: _346  and  _347
REMARK  144  A    between atoms: _346  and  _349
REMARK  145  A    between atoms: _349  and  _350
REMARK  146  A    between atoms: _353  and  _355
REMARK  147  A    between atoms: _355  and  _356
REMARK  148  A    between atoms: _355  and  _358
REMARK  149  A    between atoms: _358  and  _359
REMARK  150  A    between atoms: _362  and  _364
REMARK  151  A    between atoms: _364  and  _365
REMARK  152  A    between atoms: _364  and  _367
REMARK  153  A    between atoms: _367  and  _368
REMARK  154  A    between atoms: _371  and  _373
REMARK  155  A    between atoms: _373  and  _374
REMARK  156  A    between atoms: _373  and  _376
REMARK  157  A    between atoms: _379  and  _381
REMARK  158  A    between atoms: _381  and  _382
REMARK  159  A    between atoms: _381  and  _384
REMARK  160  A    between atoms: _384  and  _385
REMARK  161  A    between atoms: _388  and  _390
REMARK  162  A    between atoms: _390  and  _391
REMARK  163  A    between atoms: _390  and  _393
REMARK  164  A    between atoms: _393  and  _394
REMARK  165  A    between atoms: _394  and  _395
REMARK  166  A    between atoms: _395  and  _396
REMARK  167  A    between atoms: _396  and  _397
REMARK  168  A    between atoms: _401  and  _403
REMARK  169  A    between atoms: _403  and  _404
REMARK  170  A    between atoms: _403  and  _406
REMARK  171  A    between atoms: _406  and  _407
REMARK  172  A    between atoms: _407  and  _408
REMARK  173  A    between atoms: _410  and  _412
REMARK  174  A    between atoms: _412  and  _413
REMARK  175  A    between atoms: _412  and  _415
REMARK  176  A    between atoms: _415  and  _416
REMARK  177  A    between atoms: _419  and  _421
REMARK  178  A    between atoms: _421  and  _422
REMARK  179  A    between atoms: _424  and  _426
REMARK  180  A    between atoms: _426  and  _427
REMARK  181  A    between atoms: _429  and  _431
REMARK  182  A    between atoms: _431  and  _432
REMARK  183  A    between atoms: _431  and  _434
REMARK  184  A    between atoms: _434  and  _435
REMARK  185  A    between atoms: _438  and  _440
REMARK  186  A    between atoms: _440  and  _441
REMARK  187  A    between atoms: _443  and  _445
REMARK  188  A    between atoms: _445  and  _446
REMARK  189  A    between atoms: _448  and  _450
REMARK  190  A    between atoms: _450  and  _451
REMARK  191  A    between atoms: _450  and  _453
REMARK  192  A    between atoms: _453  and  _454
REMARK  193  A    between atoms: _460  and  _462
REMARK  194  A    between atoms: _462  and  _463
REMARK  195  A    between atoms: _462  and  _465
REMARK  196  A    between atoms: _465  and  _466
REMARK  197  A    between atoms: _469  and  _471
REMARK  198  A    between atoms: _471  and  _472
REMARK  199  A    between atoms: _471  and  _474
REMARK  200  A    between atoms: _477  and  _479
REMARK  201  A    between atoms: _479  and  _480
REMARK  202  A    between atoms: _479  and  _482
REMARK  203  A    between atoms: _482  and  _483
REMARK  204  A    between atoms: _486  and  _488
REMARK  205  A    between atoms: _488  and  _489
REMARK  206  A    between atoms: _488  and  _491
REMARK  207  A    between atoms: _491  and  _492
REMARK  208  A    between atoms: _496  and  _497
REMARK  209  A    between atoms: _502  and  _504
REMARK  210  A    between atoms: _504  and  _505
REMARK  211  A    between atoms: _508  and  _510
REMARK  212  A    between atoms: _510  and  _511
REMARK  213  A    between atoms: _510  and  _513
REMARK  214  A    between atoms: _513  and  _514
REMARK  215  A    between atoms: _519  and  _521
REMARK  216  A    between atoms: _521  and  _522
REMARK  217  A    between atoms: _521  and  _524
REMARK  218  A    between atoms: _524  and  _525
REMARK  219  A    between atoms: _528  and  _530
REMARK  220  A    between atoms: _530  and  _531
REMARK  221  A    between atoms: _530  and  _533
REMARK  222  A    between atoms: _533  and  _534
REMARK  223  A    between atoms: _537  and  _539
REMARK  224  A    between atoms: _539  and  _540
REMARK  225  A    between atoms: _542  and  _544
REMARK  226  A    between atoms: _544  and  _545
REMARK  227  A    between atoms: _544  and  _547
REMARK  228  A    between atoms: _547  and  _548
REMARK  229  A    between atoms: _548  and  _549
REMARK  230  A    between atoms: _549  and  _550
REMARK  231  A    between atoms: _559  and  _561
REMARK  232  A    between atoms: _561  and  _562
REMARK  233  A    between atoms: _561  and  _564
REMARK  234  A    between atoms: _564  and  _565
REMARK                            x       y       z     vdW  Elec       q    Type
REMARK                         _______ _______ _______ _____ _____    ______ ____
ROOT
ATOM      1  O   HOH     1      25.983  23.178   6.362  0.00  0.00    +0.000 OA
ENDROOT
TORSDOF 0
REMARK  Name = ../refined-set-2016/1sdv/1sdv_pocket.pdb
REMARK  234 active torsions:
REMARK  status: ('A' for Active; 'I' for Inactive)
REMARK    1  A    between atoms: _1  and  _3
REMARK    2  A    between atoms: _3  and  _4
REMARK    3  A    between atoms: _3  and  _6
REMARK    4  A    between atoms: _6  and  _7
REMARK    5  A    between atoms: _7  and  _8
REMARK    6  A    between atoms: _8  and  _9
REMARK    7  A    between atoms: _18  and  _20
REMARK    8  A    between atoms: _20  and  _21
REMARK    9  A    between atoms: _20  and  _23
REMARK   10  A    between atoms: _23  and  _24
REMARK   11  A    between atoms: _27  and  _29
REMARK   12  A    between atoms: _29  and  _30
REMARK   13  A    between atoms: _29  and  _32
REMARK   14  A    between atoms: _32  and  _33
REMARK   15  A    between atoms: _36  and  _38
REMARK   16  A    between atoms: _38  and  _39
REMARK   17  A    between atoms: _38  and  _41
REMARK   18  A    between atoms: _41  and  _42
REMARK   19  A    between atoms: _45  and  _47
REMARK   20  A    between atoms: _47  and  _48
REMARK   21  A    between atoms: _47  and  _50
REMARK   22  A    between atoms: _50  and  _51
REMARK   23  A    between atoms: _54  and  _56
REMARK   24  A    between atoms: _56  and  _57
REMARK   25  A    between atoms: _56  and  _59
REMARK   26  A    between atoms: _59  and  _60
REMARK   27  A    between atoms: _63  and  _65
REMARK   28  A    between atoms: _65  and  _66
REMARK   29  A    between atoms: _68  and  _70
REMARK   30  A    between atoms: _70  and  _71
REMARK   31  A    between atoms: _74  and  _76
REMARK   32  A    between atoms: _76  and  _77
REMARK   33  A    between atoms: _76  and  _79
REMARK   34  A    between atoms: _79  and  _80
REMARK   35  A    between atoms: _83  and  _85
REMARK   36  A    between atoms: _85  and  _86
REMARK   37  A    between atoms: _85  and  _88
REMARK   38  A    between atoms: _88  and  _89
REMARK   39  A    between atoms: _92  and  _94
REMARK   40  A    between atoms: _94  and  _95
REMARK   41  A    between atoms: _94  and  _97
REMARK   42  A    between atoms: _97  and  _98
REMARK   43  A    between atoms: _101  and  _103
REMARK   44  A    between atoms: _103  and  _104
REMARK   45  A    between atoms: _103  and  _106
REMARK   46  A    between atoms: _109  and  _111
REMARK   47  A    between atoms: _111  and  _112
REMARK   48  A    between atoms: _111  and  _114
REMARK   49  A    between atoms: _114  and  _115
REMARK   50  A    between atoms: _115  and  _116
REMARK   51  A    between atoms: _116  and  _117
REMARK   52  A    between atoms: _117  and  _118
REMARK   53  A    between atoms: _122  and  _124
REMARK   54  A    between atoms: _124  and  _125
REMARK   55  A    between atoms: _124  and  _127
REMARK   56  A    between atoms: _127  and  _128
REMARK   57  A    between atoms: _128  and  _129
REMARK   58  A    between atoms: _131  and  _133
REMARK   59  A    between atoms: _133  and  _134
REMARK   60  A    between atoms: _133  and  _136
REMARK   61  A    between atoms: _136  and  _137
REMARK   62  A    between atoms: _140  and  _142
REMARK   63  A    between atoms: _142  and  _143
REMARK   64  A    between atoms: _145  and  _147
REMARK   65  A    between atoms: _147  and  _148
REMARK   66  A    between atoms: _150  and  _152
REMARK   67  A    between atoms: _152  and  _153
REMARK   68  A    between atoms: _152  and  _155
REMARK   69  A    between atoms: _155  and  _156
REMARK   70  A    between atoms: _159  and  _161
REMARK   71  A    between atoms: _161  and  _162
REMARK   72  A    between atoms: _164  and  _166
REMARK   73  A    between atoms: _166  and  _167
REMARK   74  A    between atoms: _169  and  _171
REMARK   75  A    between atoms: _171  and  _172
REMARK   76  A    between atoms: _171  and  _174
REMARK   77  A    between atoms: _174  and  _175
REMARK   78  A    between atoms: _181  and  _183
REMARK   79  A    between atoms: _183  and  _184
REMARK   80  A    between atoms: _183  and  _186
REMARK   81  A    between atoms: _186  and  _187
REMARK   82  A    between atoms: _190  and  _192
REMARK   83  A    between atoms: _192  and  _193
REMARK   84  A    between atoms: _192  and  _195
REMARK   85  A    between atoms: _198  and  _200
REMARK   86  A    between atoms: _200  and  _201
REMARK   87  A    between atoms: _200  and  _203
REMARK   88  A    between atoms: _203  and  _204
REMARK   89  A    between atoms: _207  and  _209
REMARK   90  A    between atoms: _209  and  _210
REMARK   91  A    between atoms: _209  and  _212
REMARK   92  A    between atoms: _212  and  _213
REMARK   93  A    between atoms: _217  and  _218
REMARK   94  A    between atoms: _223  and  _225
REMARK   95  A    between atoms: _225  and  _226
REMARK   96  A    between atoms: _229  and  _231
REMARK   97  A    between atoms: _231  and  _232
REMARK   98  A    between atoms: _231  and  _234
REMARK   99  A    between atoms: _234  and  _235
REMARK  100  A    between atoms: _240  and  _242
REMARK  101  A    between atoms: _242  and  _243
REMARK  102  A    between atoms: _242  and  _245
REMARK  103  A    between atoms: _245  and  _246
REMARK  104  A    between atoms: _249  and  _251
REMARK  105  A    between atoms: _251  and  _252
REMARK  106  A    between atoms: _251  and  _254
REMARK  107  A    between atoms: _254  and  _255
REMARK  108  A    between atoms: _258  and  _260
REMARK  109  A    between atoms: _260  and  _261
REMARK  110  A    between atoms: _263  and  _265
REMARK  111  A    between atoms: _265  and  _266
REMARK  112  A    between atoms: _265  and  _268
REMARK  113  A    between atoms: _268  and  _269
REMARK  114  A    between atoms: _269  and  _270
REMARK  115  A    between atoms: _270  and  _271
REMARK  116  A    between atoms: _280  and  _282
REMARK  117  A    between atoms: _282  and  _283
REMARK  118  A    between atoms: _282  and  _285
REMARK  119  A    between atoms: _285  and  _286
REMARK  120  A    between atoms: _286  and  _287
REMARK  121  A    between atoms: _287  and  _288
REMARK  122  A    between atoms: _297  and  _299
REMARK  123  A    between atoms: _299  and  _300
REMARK  124  A    between atoms: _299  and  _302
REMARK  125  A    between atoms: _302  and  _303
REMARK  126  A    between atoms: _306  and  _308
REMARK  127  A    between atoms: _308  and  _309
REMARK  128  A    between atoms: _308  and  _311
REMARK  129  A    between atoms: _311  and  _312
REMARK  130  A    between atoms: _315  and  _317
REMARK  131  A    between atoms: _317  and  _318
REMARK  132  A    between atoms: _317  and  _320
REMARK  133  A    between atoms: _320  and  _321
REMARK  134  A    between atoms: _324  and  _326
REMARK  135  A    between atoms: _326  and  _327
REMARK  136  A    between atoms: _326  and  _329
REMARK  137  A    between atoms: _329  and  _330
REMARK  138  A    between atoms: _333  and  _335
REMARK  139  A    between atoms: _335  and  _336
REMARK  140  A    between atoms: _338  and  _340
REMARK  141  A    between atoms: _340  and  _341
REMARK  142  A    between atoms: _344  and  _346
REMARK  143  A    between atoms: _346  and  _347
REMARK  144  A    between atoms: _346  and  _349
REMARK  145  A    between atoms: _349  and  _350
REMARK  146  A    between atoms: _353  and  _355
REMARK  147  A    between atoms: _355  and  _356
REMARK  148  A    between atoms: _355  and  _358
REMARK  149  A    between atoms: _358  and  _359
REMARK  150  A    between atoms: _362  and  _364
REMARK  151  A    between atoms: _364  and  _365
REMARK  152  A    between atoms: _364  and  _367
REMARK  153  A    between atoms: _367  and  _368
REMARK  154  A    between atoms: _371  and  _373
REMARK  155  A    between atoms: _373  and  _374
REMARK  156  A    between atoms: _373  and  _376
REMARK  157  A    between atoms: _379  and  _381
REMARK  158  A    between atoms: _381  and  _382
REMARK  159  A    between atoms: _381  and  _384
REMARK  160  A    between atoms: _384  and  _385
REMARK  161  A    between atoms: _388  and  _390
REMARK  162  A    between atoms: _390  and  _391
REMARK  163  A    between atoms: _390  and  _393
REMARK  164  A    between atoms: _393  and  _394
REMARK  165  A    between atoms: _394  and  _395
REMARK  166  A    between atoms: _395  and  _396
REMARK  167  A    between atoms: _396  and  _397
REMARK  168  A    between atoms: _401  and  _403
REMARK  169  A    between atoms: _403  and  _404
REMARK  170  A    between atoms: _403  and  _406
REMARK  171  A    between atoms: _406  and  _407
REMARK  172  A    between atoms: _407  and  _408
REMARK  173  A    between atoms: _410  and  _412
REMARK  174  A    between atoms: _412  and  _413
REMARK  175  A    between atoms: _412  and  _415
REMARK  176  A    between atoms: _415  and  _416
REMARK  177  A    between atoms: _419  and  _421
REMARK  178  A    between atoms: _421  and  _422
REMARK  179  A    between atoms: _424  and  _426
REMARK  180  A    between atoms: _426  and  _427
REMARK  181  A    between atoms: _429  and  _431
REMARK  182  A    between atoms: _431  and  _432
REMARK  183  A    between atoms: _431  and  _434
REMARK  184  A    between atoms: _434  and  _435
REMARK  185  A    between atoms: _438  and  _440
REMARK  186  A    between atoms: _440  and  _441
REMARK  187  A    between atoms: _443  and  _445
REMARK  188  A    between atoms: _445  and  _446
REMARK  189  A    between atoms: _448  and  _450
REMARK  190  A    between atoms: _450  and  _451
REMARK  191  A    between atoms: _450  and  _453
REMARK  192  A    between atoms: _453  and  _454
REMARK  193  A    between atoms: _460  and  _462
REMARK  194  A    between atoms: _462  and  _463
REMARK  195  A    between atoms: _462  and  _465
REMARK  196  A    between atoms: _465  and  _466
REMARK  197  A    between atoms: _469  and  _471
REMARK  198  A    between atoms: _471  and  _472
REMARK  199  A    between atoms: _471  and  _474
REMARK  200  A    between atoms: _477  and  _479
REMARK  201  A    between atoms: _479  and  _480
REMARK  202  A    between atoms: _479  and  _482
REMARK  203  A    between atoms: _482  and  _483
REMARK  204  A    between atoms: _486  and  _488
REMARK  205  A    between atoms: _488  and  _489
REMARK  206  A    between atoms: _488  and  _491
REMARK  207  A    between atoms: _491  and  _492
REMARK  208  A    between atoms: _496  and  _497
REMARK  209  A    between atoms: _502  and  _504
REMARK  210  A    between atoms: _504  and  _505
REMARK  211  A    between atoms: _508  and  _510
REMARK  212  A    between atoms: _510  and  _511
REMARK  213  A    between atoms: _510  and  _513
REMARK  214  A    between atoms: _513  and  _514
REMARK  215  A    between atoms: _519  and  _521
REMARK  216  A    between atoms: _521  and  _522
REMARK  217  A    between atoms: _521  and  _524
REMARK  218  A    between atoms: _524  and  _525
REMARK  219  A    between atoms: _528  and  _530
REMARK  220  A    between atoms: _530  and  _531
REMARK  221  A    between atoms: _530  and  _533
REMARK  222  A    between atoms: _533  and  _534
REMARK  223  A    between atoms: _537  and  _539
REMARK  224  A    between atoms: _539  and  _540
REMARK  225  A    between atoms: _542  and  _544
REMARK  226  A    between atoms: _544  and  _545
REMARK  227  A    between atoms: _544  and  _547
REMARK  228  A    between atoms: _547  and  _548
REMARK  229  A    between atoms: _548  and  _549
REMARK  230  A    between atoms: _549  and  _550
REMARK  231  A    between atoms: _559  and  _561
REMARK  232  A    between atoms: _561  and  _562
REMARK  233  A    between atoms: _561  and  _564
REMARK  234  A    between atoms: _564  and  _565
REMARK                            x       y       z     vdW  Elec       q    Type
REMARK                         _______ _______ _______ _____ _____    ______ ____
ROOT
ATOM      1  O   HOH     1      25.847  25.804   7.368  0.00  0.00    +0.000 OA
ENDROOT
TORSDOF 0
REMARK  Name = ../refined-set-2016/1sdv/1sdv_pocket.pdb
REMARK  234 active torsions:
REMARK  status: ('A' for Active; 'I' for Inactive)
REMARK    1  A    between atoms: _1  and  _3
REMARK    2  A    between atoms: _3  and  _4
REMARK    3  A    between atoms: _3  and  _6
REMARK    4  A    between atoms: _6  and  _7
REMARK    5  A    between atoms: _7  and  _8
REMARK    6  A    between atoms: _8  and  _9
REMARK    7  A    between atoms: _18  and  _20
REMARK    8  A    between atoms: _20  and  _21
REMARK    9  A    between atoms: _20  and  _23
REMARK   10  A    between atoms: _23  and  _24
REMARK   11  A    between atoms: _27  and  _29
REMARK   12  A    between atoms: _29  and  _30
REMARK   13  A    between atoms: _29  and  _32
REMARK   14  A    between atoms: _32  and  _33
REMARK   15  A    between atoms: _36  and  _38
REMARK   16  A    between atoms: _38  and  _39
REMARK   17  A    between atoms: _38  and  _41
REMARK   18  A    between atoms: _41  and  _42
REMARK   19  A    between atoms: _45  and  _47
REMARK   20  A    between atoms: _47  and  _48
REMARK   21  A    between atoms: _47  and  _50
REMARK   22  A    between atoms: _50  and  _51
REMARK   23  A    between atoms: _54  and  _56
REMARK   24  A    between atoms: _56  and  _57
REMARK   25  A    between atoms: _56  and  _59
REMARK   26  A    between atoms: _59  and  _60
REMARK   27  A    between atoms: _63  and  _65
REMARK   28  A    between atoms: _65  and  _66
REMARK   29  A    between atoms: _68  and  _70
REMARK   30  A    between atoms: _70  and  _71
REMARK   31  A    between atoms: _74  and  _76
REMARK   32  A    between atoms: _76  and  _77
REMARK   33  A    between atoms: _76  and  _79
REMARK   34  A    between atoms: _79  and  _80
REMARK   35  A    between atoms: _83  and  _85
REMARK   36  A    between atoms: _85  and  _86
REMARK   37  A    between atoms: _85  and  _88
REMARK   38  A    between atoms: _88  and  _89
REMARK   39  A    between atoms: _92  and  _94
REMARK   40  A    between atoms: _94  and  _95
REMARK   41  A    between atoms: _94  and  _97
REMARK   42  A    between atoms: _97  and  _98
REMARK   43  A    between atoms: _101  and  _103
REMARK   44  A    between atoms: _103  and  _104
REMARK   45  A    between atoms: _103  and  _106
REMARK   46  A    between atoms: _109  and  _111
REMARK   47  A    between atoms: _111  and  _112
REMARK   48  A    between atoms: _111  and  _114
REMARK   49  A    between atoms: _114  and  _115
REMARK   50  A    between atoms: _115  and  _116
REMARK   51  A    between atoms: _116  and  _117
REMARK   52  A    between atoms: _117  and  _118
REMARK   53  A    between atoms: _122  and  _124
REMARK   54  A    between atoms: _124  and  _125
REMARK   55  A    between atoms: _124  and  _127
REMARK   56  A    between atoms: _127  and  _128
REMARK   57  A    between atoms: _128  and  _129
REMARK   58  A    between atoms: _131  and  _133
REMARK   59  A    between atoms: _133  and  _134
REMARK   60  A    between atoms: _133  and  _136
REMARK   61  A    between atoms: _136  and  _137
REMARK   62  A    between atoms: _140  and  _142
REMARK   63  A    between atoms: _142  and  _143
REMARK   64  A    between atoms: _145  and  _147
REMARK   65  A    between atoms: _147  and  _148
REMARK   66  A    between atoms: _150  and  _152
REMARK   67  A    between atoms: _152  and  _153
REMARK   68  A    between atoms: _152  and  _155
REMARK   69  A    between atoms: _155  and  _156
REMARK   70  A    between atoms: _159  and  _161
REMARK   71  A    between atoms: _161  and  _162
REMARK   72  A    between atoms: _164  and  _166
REMARK   73  A    between atoms: _166  and  _167
REMARK   74  A    between atoms: _169  and  _171
REMARK   75  A    between atoms: _171  and  _172
REMARK   76  A    between atoms: _171  and  _174
REMARK   77  A    between atoms: _174  and  _175
REMARK   78  A    between atoms: _181  and  _183
REMARK   79  A    between atoms: _183  and  _184
REMARK   80  A    between atoms: _183  and  _186
REMARK   81  A    between atoms: _186  and  _187
REMARK   82  A    between atoms: _190  and  _192
REMARK   83  A    between atoms: _192  and  _193
REMARK   84  A    between atoms: _192  and  _195
REMARK   85  A    between atoms: _198  and  _200
REMARK   86  A    between atoms: _200  and  _201
REMARK   87  A    between atoms: _200  and  _203
REMARK   88  A    between atoms: _203  and  _204
REMARK   89  A    between atoms: _207  and  _209
REMARK   90  A    between atoms: _209  and  _210
REMARK   91  A    between atoms: _209  and  _212
REMARK   92  A    between atoms: _212  and  _213
REMARK   93  A    between atoms: _217  and  _218
REMARK   94  A    between atoms: _223  and  _225
REMARK   95  A    between atoms: _225  and  _226
REMARK   96  A    between atoms: _229  and  _231
REMARK   97  A    between atoms: _231  and  _232
REMARK   98  A    between atoms: _231  and  _234
REMARK   99  A    between atoms: _234  and  _235
REMARK  100  A    between atoms: _240  and  _242
REMARK  101  A    between atoms: _242  and  _243
REMARK  102  A    between atoms: _242  and  _245
REMARK  103  A    between atoms: _245  and  _246
REMARK  104  A    between atoms: _249  and  _251
REMARK  105  A    between atoms: _251  and  _252
REMARK  106  A    between atoms: _251  and  _254
REMARK  107  A    between atoms: _254  and  _255
REMARK  108  A    between atoms: _258  and  _260
REMARK  109  A    between atoms: _260  and  _261
REMARK  110  A    between atoms: _263  and  _265
REMARK  111  A    between atoms: _265  and  _266
REMARK  112  A    between atoms: _265  and  _268
REMARK  113  A    between atoms: _268  and  _269
REMARK  114  A    between atoms: _269  and  _270
REMARK  115  A    between atoms: _270  and  _271
REMARK  116  A    between atoms: _280  and  _282
REMARK  117  A    between atoms: _282  and  _283
REMARK  118  A    between atoms: _282  and  _285
REMARK  119  A    between atoms: _285  and  _286
REMARK  120  A    between atoms: _286  and  _287
REMARK  121  A    between atoms: _287  and  _288
REMARK  122  A    between atoms: _297  and  _299
REMARK  123  A    between atoms: _299  and  _300
REMARK  124  A    between atoms: _299  and  _302
REMARK  125  A    between atoms: _302  and  _303
REMARK  126  A    between atoms: _306  and  _308
REMARK  127  A    between atoms: _308  and  _309
REMARK  128  A    between atoms: _308  and  _311
REMARK  129  A    between atoms: _311  and  _312
REMARK  130  A    between atoms: _315  and  _317
REMARK  131  A    between atoms: _317  and  _318
REMARK  132  A    between atoms: _317  and  _320
REMARK  133  A    between atoms: _320  and  _321
REMARK  134  A    between atoms: _324  and  _326
REMARK  135  A    between atoms: _326  and  _327
REMARK  136  A    between atoms: _326  and  _329
REMARK  137  A    between atoms: _329  and  _330
REMARK  138  A    between atoms: _333  and  _335
REMARK  139  A    between atoms: _335  and  _336
REMARK  140  A    between atoms: _338  and  _340
REMARK  141  A    between atoms: _340  and  _341
REMARK  142  A    between atoms: _344  and  _346
REMARK  143  A    between atoms: _346  and  _347
REMARK  144  A    between atoms: _346  and  _349
REMARK  145  A    between atoms: _349  and  _350
REMARK  146  A    between atoms: _353  and  _355
REMARK  147  A    between atoms: _355  and  _356
REMARK  148  A    between atoms: _355  and  _358
REMARK  149  A    between atoms: _358  and  _359
REMARK  150  A    between atoms: _362  and  _364
REMARK  151  A    between atoms: _364  and  _365
REMARK  152  A    between atoms: _364  and  _367
REMARK  153  A    between atoms: _367  and  _368
REMARK  154  A    between atoms: _371  and  _373
REMARK  155  A    between atoms: _373  and  _374
REMARK  156  A    between atoms: _373  and  _376
REMARK  157  A    between atoms: _379  and  _381
REMARK  158  A    between atoms: _381  and  _382
REMARK  159  A    between atoms: _381  and  _384
REMARK  160  A    between atoms: _384  and  _385
REMARK  161  A    between atoms: _388  and  _390
REMARK  162  A    between atoms: _390  and  _391
REMARK  163  A    between atoms: _390  and  _393
REMARK  164  A    between atoms: _393  and  _394
REMARK  165  A    between atoms: _394  and  _395
REMARK  166  A    between atoms: _395  and  _396
REMARK  167  A    between atoms: _396  and  _397
REMARK  168  A    between atoms: _401  and  _403
REMARK  169  A    between atoms: _403  and  _404
REMARK  170  A    between atoms: _403  and  _406
REMARK  171  A    between atoms: _406  and  _407
REMARK  172  A    between atoms: _407  and  _408
REMARK  173  A    between atoms: _410  and  _412
REMARK  174  A    between atoms: _412  and  _413
REMARK  175  A    between atoms: _412  and  _415
REMARK  176  A    between atoms: _415  and  _416
REMARK  177  A    between atoms: _419  and  _421
REMARK  178  A    between atoms: _421  and  _422
REMARK  179  A    between atoms: _424  and  _426
REMARK  180  A    between atoms: _426  and  _427
REMARK  181  A    between atoms: _429  and  _431
REMARK  182  A    between atoms: _431  and  _432
REMARK  183  A    between atoms: _431  and  _434
REMARK  184  A    between atoms: _434  and  _435
REMARK  185  A    between atoms: _438  and  _440
REMARK  186  A    between atoms: _440  and  _441
REMARK  187  A    between atoms: _443  and  _445
REMARK  188  A    between atoms: _445  and  _446
REMARK  189  A    between atoms: _448  and  _450
REMARK  190  A    between atoms: _450  and  _451
REMARK  191  A    between atoms: _450  and  _453
REMARK  192  A    between atoms: _453  and  _454
REMARK  193  A    between atoms: _460  and  _462
REMARK  194  A    between atoms: _462  and  _463
REMARK  195  A    between atoms: _462  and  _465
REMARK  196  A    between atoms: _465  and  _466
REMARK  197  A    between atoms: _469  and  _471
REMARK  198  A    between atoms: _471  and  _472
REMARK  199  A    between atoms: _471  and  _474
REMARK  200  A    between atoms: _477  and  _479
REMARK  201  A    between atoms: _479  and  _480
REMARK  202  A    between atoms: _479  and  _482
REMARK  203  A    between atoms: _482  and  _483
REMARK  204  A    between atoms: _486  and  _488
REMARK  205  A    between atoms: _488  and  _489
REMARK  206  A    between atoms: _488  and  _491
REMARK  207  A    between atoms: _491  and  _492
REMARK  208  A    between atoms: _496  and  _497
REMARK  209  A    between atoms: _502  and  _504
REMARK  210  A    between atoms: _504  and  _505
REMARK  211  A    between atoms: _508  and  _510
REMARK  212  A    between atoms: _510  and  _511
REMARK  213  A    between atoms: _510  and  _513
REMARK  214  A    between atoms: _513  and  _514
REMARK  215  A    between atoms: _519  and  _521
REMARK  216  A    between atoms: _521  and  _522
REMARK  217  A    between atoms: _521  and  _524
REMARK  218  A    between atoms: _524  and  _525
REMARK  219  A    between atoms: _528  and  _530
REMARK  220  A    between atoms: _530  and  _531
REMARK  221  A    between atoms: _530  and  _533
REMARK  222  A    between atoms: _533  and  _534
REMARK  223  A    between atoms: _537  and  _539
REMARK  224  A    between atoms: _539  and  _540
REMARK  225  A    between atoms: _542  and  _544
REMARK  226  A    between atoms: _544  and  _545
REMARK  227  A    between atoms: _544  and  _547
REMARK  228  A    between atoms: _547  and  _548
REMARK  229  A    between atoms: _548  and  _549
REMARK  230  A    between atoms: _549  and  _550
REMARK  231  A    between atoms: _559  and  _561
REMARK  232  A    between atoms: _561  and  _562
REMARK  233  A    between atoms: _561  and  _564
REMARK  234  A    between atoms: _564  and  _565
REMARK                            x       y       z     vdW  Elec       q    Type
REMARK                         _______ _______ _______ _____ _____    ______ ____
ROOT
ATOM      1  O   HOH     1      25.016   8.886  13.326  0.00  0.00    +0.000 OA
ENDROOT
TORSDOF 0
REMARK  Name = ../refined-set-2016/1sdv/1sdv_pocket.pdb
REMARK  234 active torsions:
REMARK  status: ('A' for Active; 'I' for Inactive)
REMARK    1  A    between atoms: _1  and  _3
REMARK    2  A    between atoms: _3  and  _4
REMARK    3  A    between atoms: _3  and  _6
REMARK    4  A    between atoms: _6  and  _7
REMARK    5  A    between atoms: _7  and  _8
REMARK    6  A    between atoms: _8  and  _9
REMARK    7  A    between atoms: _18  and  _20
REMARK    8  A    between atoms: _20  and  _21
REMARK    9  A    between atoms: _20  and  _23
REMARK   10  A    between atoms: _23  and  _24
REMARK   11  A    between atoms: _27  and  _29
REMARK   12  A    between atoms: _29  and  _30
REMARK   13  A    between atoms: _29  and  _32
REMARK   14  A    between atoms: _32  and  _33
REMARK   15  A    between atoms: _36  and  _38
REMARK   16  A    between atoms: _38  and  _39
REMARK   17  A    between atoms: _38  and  _41
REMARK   18  A    between atoms: _41  and  _42
REMARK   19  A    between atoms: _45  and  _47
REMARK   20  A    between atoms: _47  and  _48
REMARK   21  A    between atoms: _47  and  _50
REMARK   22  A    between atoms: _50  and  _51
REMARK   23  A    between atoms: _54  and  _56
REMARK   24  A    between atoms: _56  and  _57
REMARK   25  A    between atoms: _56  and  _59
REMARK   26  A    between atoms: _59  and  _60
REMARK   27  A    between atoms: _63  and  _65
REMARK   28  A    between atoms: _65  and  _66
REMARK   29  A    between atoms: _68  and  _70
REMARK   30  A    between atoms: _70  and  _71
REMARK   31  A    between atoms: _74  and  _76
REMARK   32  A    between atoms: _76  and  _77
REMARK   33  A    between atoms: _76  and  _79
REMARK   34  A    between atoms: _79  and  _80
REMARK   35  A    between atoms: _83  and  _85
REMARK   36  A    between atoms: _85  and  _86
REMARK   37  A    between atoms: _85  and  _88
REMARK   38  A    between atoms: _88  and  _89
REMARK   39  A    between atoms: _92  and  _94
REMARK   40  A    between atoms: _94  and  _95
REMARK   41  A    between atoms: _94  and  _97
REMARK   42  A    between atoms: _97  and  _98
REMARK   43  A    between atoms: _101  and  _103
REMARK   44  A    between atoms: _103  and  _104
REMARK   45  A    between atoms: _103  and  _106
REMARK   46  A    between atoms: _109  and  _111
REMARK   47  A    between atoms: _111  and  _112
REMARK   48  A    between atoms: _111  and  _114
REMARK   49  A    between atoms: _114  and  _115
REMARK   50  A    between atoms: _115  and  _116
REMARK   51  A    between atoms: _116  and  _117
REMARK   52  A    between atoms: _117  and  _118
REMARK   53  A    between atoms: _122  and  _124
REMARK   54  A    between atoms: _124  and  _125
REMARK   55  A    between atoms: _124  and  _127
REMARK   56  A    between atoms: _127  and  _128
REMARK   57  A    between atoms: _128  and  _129
REMARK   58  A    between atoms: _131  and  _133
REMARK   59  A    between atoms: _133  and  _134
REMARK   60  A    between atoms: _133  and  _136
REMARK   61  A    between atoms: _136  and  _137
REMARK   62  A    between atoms: _140  and  _142
REMARK   63  A    between atoms: _142  and  _143
REMARK   64  A    between atoms: _145  and  _147
REMARK   65  A    between atoms: _147  and  _148
REMARK   66  A    between atoms: _150  and  _152
REMARK   67  A    between atoms: _152  and  _153
REMARK   68  A    between atoms: _152  and  _155
REMARK   69  A    between atoms: _155  and  _156
REMARK   70  A    between atoms: _159  and  _161
REMARK   71  A    between atoms: _161  and  _162
REMARK   72  A    between atoms: _164  and  _166
REMARK   73  A    between atoms: _166  and  _167
REMARK   74  A    between atoms: _169  and  _171
REMARK   75  A    between atoms: _171  and  _172
REMARK   76  A    between atoms: _171  and  _174
REMARK   77  A    between atoms: _174  and  _175
REMARK   78  A    between atoms: _181  and  _183
REMARK   79  A    between atoms: _183  and  _184
REMARK   80  A    between atoms: _183  and  _186
REMARK   81  A    between atoms: _186  and  _187
REMARK   82  A    between atoms: _190  and  _192
REMARK   83  A    between atoms: _192  and  _193
REMARK   84  A    between atoms: _192  and  _195
REMARK   85  A    between atoms: _198  and  _200
REMARK   86  A    between atoms: _200  and  _201
REMARK   87  A    between atoms: _200  and  _203
REMARK   88  A    between atoms: _203  and  _204
REMARK   89  A    between atoms: _207  and  _209
REMARK   90  A    between atoms: _209  and  _210
REMARK   91  A    between atoms: _209  and  _212
REMARK   92  A    between atoms: _212  and  _213
REMARK   93  A    between atoms: _217  and  _218
REMARK   94  A    between atoms: _223  and  _225
REMARK   95  A    between atoms: _225  and  _226
REMARK   96  A    between atoms: _229  and  _231
REMARK   97  A    between atoms: _231  and  _232
REMARK   98  A    between atoms: _231  and  _234
REMARK   99  A    between atoms: _234  and  _235
REMARK  100  A    between atoms: _240  and  _242
REMARK  101  A    between atoms: _242  and  _243
REMARK  102  A    between atoms: _242  and  _245
REMARK  103  A    between atoms: _245  and  _246
REMARK  104  A    between atoms: _249  and  _251
REMARK  105  A    between atoms: _251  and  _252
REMARK  106  A    between atoms: _251  and  _254
REMARK  107  A    between atoms: _254  and  _255
REMARK  108  A    between atoms: _258  and  _260
REMARK  109  A    between atoms: _260  and  _261
REMARK  110  A    between atoms: _263  and  _265
REMARK  111  A    between atoms: _265  and  _266
REMARK  112  A    between atoms: _265  and  _268
REMARK  113  A    between atoms: _268  and  _269
REMARK  114  A    between atoms: _269  and  _270
REMARK  115  A    between atoms: _270  and  _271
REMARK  116  A    between atoms: _280  and  _282
REMARK  117  A    between atoms: _282  and  _283
REMARK  118  A    between atoms: _282  and  _285
REMARK  119  A    between atoms: _285  and  _286
REMARK  120  A    between atoms: _286  and  _287
REMARK  121  A    between atoms: _287  and  _288
REMARK  122  A    between atoms: _297  and  _299
REMARK  123  A    between atoms: _299  and  _300
REMARK  124  A    between atoms: _299  and  _302
REMARK  125  A    between atoms: _302  and  _303
REMARK  126  A    between atoms: _306  and  _308
REMARK  127  A    between atoms: _308  and  _309
REMARK  128  A    between atoms: _308  and  _311
REMARK  129  A    between atoms: _311  and  _312
REMARK  130  A    between atoms: _315  and  _317
REMARK  131  A    between atoms: _317  and  _318
REMARK  132  A    between atoms: _317  and  _320
REMARK  133  A    between atoms: _320  and  _321
REMARK  134  A    between atoms: _324  and  _326
REMARK  135  A    between atoms: _326  and  _327
REMARK  136  A    between atoms: _326  and  _329
REMARK  137  A    between atoms: _329  and  _330
REMARK  138  A    between atoms: _333  and  _335
REMARK  139  A    between atoms: _335  and  _336
REMARK  140  A    between atoms: _338  and  _340
REMARK  141  A    between atoms: _340  and  _341
REMARK  142  A    between atoms: _344  and  _346
REMARK  143  A    between atoms: _346  and  _347
REMARK  144  A    between atoms: _346  and  _349
REMARK  145  A    between atoms: _349  and  _350
REMARK  146  A    between atoms: _353  and  _355
REMARK  147  A    between atoms: _355  and  _356
REMARK  148  A    between atoms: _355  and  _358
REMARK  149  A    between atoms: _358  and  _359
REMARK  150  A    between atoms: _362  and  _364
REMARK  151  A    between atoms: _364  and  _365
REMARK  152  A    between atoms: _364  and  _367
REMARK  153  A    between atoms: _367  and  _368
REMARK  154  A    between atoms: _371  and  _373
REMARK  155  A    between atoms: _373  and  _374
REMARK  156  A    between atoms: _373  and  _376
REMARK  157  A    between atoms: _379  and  _381
REMARK  158  A    between atoms: _381  and  _382
REMARK  159  A    between atoms: _381  and  _384
REMARK  160  A    between atoms: _384  and  _385
REMARK  161  A    between atoms: _388  and  _390
REMARK  162  A    between atoms: _390  and  _391
REMARK  163  A    between atoms: _390  and  _393
REMARK  164  A    between atoms: _393  and  _394
REMARK  165  A    between atoms: _394  and  _395
REMARK  166  A    between atoms: _395  and  _396
REMARK  167  A    between atoms: _396  and  _397
REMARK  168  A    between atoms: _401  and  _403
REMARK  169  A    between atoms: _403  and  _404
REMARK  170  A    between atoms: _403  and  _406
REMARK  171  A    between atoms: _406  and  _407
REMARK  172  A    between atoms: _407  and  _408
REMARK  173  A    between atoms: _410  and  _412
REMARK  174  A    between atoms: _412  and  _413
REMARK  175  A    between atoms: _412  and  _415
REMARK  176  A    between atoms: _415  and  _416
REMARK  177  A    between atoms: _419  and  _421
REMARK  178  A    between atoms: _421  and  _422
REMARK  179  A    between atoms: _424  and  _426
REMARK  180  A    between atoms: _426  and  _427
REMARK  181  A    between atoms: _429  and  _431
REMARK  182  A    between atoms: _431  and  _432
REMARK  183  A    between atoms: _431  and  _434
REMARK  184  A    between atoms: _434  and  _435
REMARK  185  A    between atoms: _438  and  _440
REMARK  186  A    between atoms: _440  and  _441
REMARK  187  A    between atoms: _443  and  _445
REMARK  188  A    between atoms: _445  and  _446
REMARK  189  A    between atoms: _448  and  _450
REMARK  190  A    between atoms: _450  and  _451
REMARK  191  A    between atoms: _450  and  _453
REMARK  192  A    between atoms: _453  and  _454
REMARK  193  A    between atoms: _460  and  _462
REMARK  194  A    between atoms: _462  and  _463
REMARK  195  A    between atoms: _462  and  _465
REMARK  196  A    between atoms: _465  and  _466
REMARK  197  A    between atoms: _469  and  _471
REMARK  198  A    between atoms: _471  and  _472
REMARK  199  A    between atoms: _471  and  _474
REMARK  200  A    between atoms: _477  and  _479
REMARK  201  A    between atoms: _479  and  _480
REMARK  202  A    between atoms: _479  and  _482
REMARK  203  A    between atoms: _482  and  _483
REMARK  204  A    between atoms: _486  and  _488
REMARK  205  A    between atoms: _488  and  _489
REMARK  206  A    between atoms: _488  and  _491
REMARK  207  A    between atoms: _491  and  _492
REMARK  208  A    between atoms: _496  and  _497
REMARK  209  A    between atoms: _502  and  _504
REMARK  210  A    between atoms: _504  and  _505
REMARK  211  A    between atoms: _508  and  _510
REMARK  212  A    between atoms: _510  and  _511
REMARK  213  A    between atoms: _510  and  _513
REMARK  214  A    between atoms: _513  and  _514
REMARK  215  A    between atoms: _519  and  _521
REMARK  216  A    between atoms: _521  and  _522
REMARK  217  A    between atoms: _521  and  _524
REMARK  218  A    between atoms: _524  and  _525
REMARK  219  A    between atoms: _528  and  _530
REMARK  220  A    between atoms: _530  and  _531
REMARK  221  A    between atoms: _530  and  _533
REMARK  222  A    between atoms: _533  and  _534
REMARK  223  A    between atoms: _537  and  _539
REMARK  224  A    between atoms: _539  and  _540
REMARK  225  A    between atoms: _542  and  _544
REMARK  226  A    between atoms: _544  and  _545
REMARK  227  A    between atoms: _544  and  _547
REMARK  228  A    between atoms: _547  and  _548
REMARK  229  A    between atoms: _548  and  _549
REMARK  230  A    between atoms: _549  and  _550
REMARK  231  A    between atoms: _559  and  _561
REMARK  232  A    between atoms: _561  and  _562
REMARK  233  A    between atoms: _561  and  _564
REMARK  234  A    between atoms: _564  and  _565
REMARK                            x       y       z     vdW  Elec       q    Type
REMARK                         _______ _______ _______ _____ _____    ______ ____
ROOT
ATOM      1  O   HOH     1      16.823   9.140  10.207  0.00  0.00    +0.000 OA
ENDROOT
TORSDOF 0
REMARK  Name = ../refined-set-2016/1sdv/1sdv_pocket.pdb
REMARK  234 active torsions:
REMARK  status: ('A' for Active; 'I' for Inactive)
REMARK    1  A    between atoms: _1  and  _3
REMARK    2  A    between atoms: _3  and  _4
REMARK    3  A    between atoms: _3  and  _6
REMARK    4  A    between atoms: _6  and  _7
REMARK    5  A    between atoms: _7  and  _8
REMARK    6  A    between atoms: _8  and  _9
REMARK    7  A    between atoms: _18  and  _20
REMARK    8  A    between atoms: _20  and  _21
REMARK    9  A    between atoms: _20  and  _23
REMARK   10  A    between atoms: _23  and  _24
REMARK   11  A    between atoms: _27  and  _29
REMARK   12  A    between atoms: _29  and  _30
REMARK   13  A    between atoms: _29  and  _32
REMARK   14  A    between atoms: _32  and  _33
REMARK   15  A    between atoms: _36  and  _38
REMARK   16  A    between atoms: _38  and  _39
REMARK   17  A    between atoms: _38  and  _41
REMARK   18  A    between atoms: _41  and  _42
REMARK   19  A    between atoms: _45  and  _47
REMARK   20  A    between atoms: _47  and  _48
REMARK   21  A    between atoms: _47  and  _50
REMARK   22  A    between atoms: _50  and  _51
REMARK   23  A    between atoms: _54  and  _56
REMARK   24  A    between atoms: _56  and  _57
REMARK   25  A    between atoms: _56  and  _59
REMARK   26  A    between atoms: _59  and  _60
REMARK   27  A    between atoms: _63  and  _65
REMARK   28  A    between atoms: _65  and  _66
REMARK   29  A    between atoms: _68  and  _70
REMARK   30  A    between atoms: _70  and  _71
REMARK   31  A    between atoms: _74  and  _76
REMARK   32  A    between atoms: _76  and  _77
REMARK   33  A    between atoms: _76  and  _79
REMARK   34  A    between atoms: _79  and  _80
REMARK   35  A    between atoms: _83  and  _85
REMARK   36  A    between atoms: _85  and  _86
REMARK   37  A    between atoms: _85  and  _88
REMARK   38  A    between atoms: _88  and  _89
REMARK   39  A    between atoms: _92  and  _94
REMARK   40  A    between atoms: _94  and  _95
REMARK   41  A    between atoms: _94  and  _97
REMARK   42  A    between atoms: _97  and  _98
REMARK   43  A    between atoms: _101  and  _103
REMARK   44  A    between atoms: _103  and  _104
REMARK   45  A    between atoms: _103  and  _106
REMARK   46  A    between atoms: _109  and  _111
REMARK   47  A    between atoms: _111  and  _112
REMARK   48  A    between atoms: _111  and  _114
REMARK   49  A    between atoms: _114  and  _115
REMARK   50  A    between atoms: _115  and  _116
REMARK   51  A    between atoms: _116  and  _117
REMARK   52  A    between atoms: _117  and  _118
REMARK   53  A    between atoms: _122  and  _124
REMARK   54  A    between atoms: _124  and  _125
REMARK   55  A    between atoms: _124  and  _127
REMARK   56  A    between atoms: _127  and  _128
REMARK   57  A    between atoms: _128  and  _129
REMARK   58  A    between atoms: _131  and  _133
REMARK   59  A    between atoms: _133  and  _134
REMARK   60  A    between atoms: _133  and  _136
REMARK   61  A    between atoms: _136  and  _137
REMARK   62  A    between atoms: _140  and  _142
REMARK   63  A    between atoms: _142  and  _143
REMARK   64  A    between atoms: _145  and  _147
REMARK   65  A    between atoms: _147  and  _148
REMARK   66  A    between atoms: _150  and  _152
REMARK   67  A    between atoms: _152  and  _153
REMARK   68  A    between atoms: _152  and  _155
REMARK   69  A    between atoms: _155  and  _156
REMARK   70  A    between atoms: _159  and  _161
REMARK   71  A    between atoms: _161  and  _162
REMARK   72  A    between atoms: _164  and  _166
REMARK   73  A    between atoms: _166  and  _167
REMARK   74  A    between atoms: _169  and  _171
REMARK   75  A    between atoms: _171  and  _172
REMARK   76  A    between atoms: _171  and  _174
REMARK   77  A    between atoms: _174  and  _175
REMARK   78  A    between atoms: _181  and  _183
REMARK   79  A    between atoms: _183  and  _184
REMARK   80  A    between atoms: _183  and  _186
REMARK   81  A    between atoms: _186  and  _187
REMARK   82  A    between atoms: _190  and  _192
REMARK   83  A    between atoms: _192  and  _193
REMARK   84  A    between atoms: _192  and  _195
REMARK   85  A    between atoms: _198  and  _200
REMARK   86  A    between atoms: _200  and  _201
REMARK   87  A    between atoms: _200  and  _203
REMARK   88  A    between atoms: _203  and  _204
REMARK   89  A    between atoms: _207  and  _209
REMARK   90  A    between atoms: _209  and  _210
REMARK   91  A    between atoms: _209  and  _212
REMARK   92  A    between atoms: _212  and  _213
REMARK   93  A    between atoms: _217  and  _218
REMARK   94  A    between atoms: _223  and  _225
REMARK   95  A    between atoms: _225  and  _226
REMARK   96  A    between atoms: _229  and  _231
REMARK   97  A    between atoms: _231  and  _232
REMARK   98  A    between atoms: _231  and  _234
REMARK   99  A    between atoms: _234  and  _235
REMARK  100  A    between atoms: _240  and  _242
REMARK  101  A    between atoms: _242  and  _243
REMARK  102  A    between atoms: _242  and  _245
REMARK  103  A    between atoms: _245  and  _246
REMARK  104  A    between atoms: _249  and  _251
REMARK  105  A    between atoms: _251  and  _252
REMARK  106  A    between atoms: _251  and  _254
REMARK  107  A    between atoms: _254  and  _255
REMARK  108  A    between atoms: _258  and  _260
REMARK  109  A    between atoms: _260  and  _261
REMARK  110  A    between atoms: _263  and  _265
REMARK  111  A    between atoms: _265  and  _266
REMARK  112  A    between atoms: _265  and  _268
REMARK  113  A    between atoms: _268  and  _269
REMARK  114  A    between atoms: _269  and  _270
REMARK  115  A    between atoms: _270  and  _271
REMARK  116  A    between atoms: _280  and  _282
REMARK  117  A    between atoms: _282  and  _283
REMARK  118  A    between atoms: _282  and  _285
REMARK  119  A    between atoms: _285  and  _286
REMARK  120  A    between atoms: _286  and  _287
REMARK  121  A    between atoms: _287  and  _288
REMARK  122  A    between atoms: _297  and  _299
REMARK  123  A    between atoms: _299  and  _300
REMARK  124  A    between atoms: _299  and  _302
REMARK  125  A    between atoms: _302  and  _303
REMARK  126  A    between atoms: _306  and  _308
REMARK  127  A    between atoms: _308  and  _309
REMARK  128  A    between atoms: _308  and  _311
REMARK  129  A    between atoms: _311  and  _312
REMARK  130  A    between atoms: _315  and  _317
REMARK  131  A    between atoms: _317  and  _318
REMARK  132  A    between atoms: _317  and  _320
REMARK  133  A    between atoms: _320  and  _321
REMARK  134  A    between atoms: _324  and  _326
REMARK  135  A    between atoms: _326  and  _327
REMARK  136  A    between atoms: _326  and  _329
REMARK  137  A    between atoms: _329  and  _330
REMARK  138  A    between atoms: _333  and  _335
REMARK  139  A    between atoms: _335  and  _336
REMARK  140  A    between atoms: _338  and  _340
REMARK  141  A    between atoms: _340  and  _341
REMARK  142  A    between atoms: _344  and  _346
REMARK  143  A    between atoms: _346  and  _347
REMARK  144  A    between atoms: _346  and  _349
REMARK  145  A    between atoms: _349  and  _350
REMARK  146  A    between atoms: _353  and  _355
REMARK  147  A    between atoms: _355  and  _356
REMARK  148  A    between atoms: _355  and  _358
REMARK  149  A    between atoms: _358  and  _359
REMARK  150  A    between atoms: _362  and  _364
REMARK  151  A    between atoms: _364  and  _365
REMARK  152  A    between atoms: _364  and  _367
REMARK  153  A    between atoms: _367  and  _368
REMARK  154  A    between atoms: _371  and  _373
REMARK  155  A    between atoms: _373  and  _374
REMARK  156  A    between atoms: _373  and  _376
REMARK  157  A    between atoms: _379  and  _381
REMARK  158  A    between atoms: _381  and  _382
REMARK  159  A    between atoms: _381  and  _384
REMARK  160  A    between atoms: _384  and  _385
REMARK  161  A    between atoms: _388  and  _390
REMARK  162  A    between atoms: _390  and  _391
REMARK  163  A    between atoms: _390  and  _393
REMARK  164  A    between atoms: _393  and  _394
REMARK  165  A    between atoms: _394  and  _395
REMARK  166  A    between atoms: _395  and  _396
REMARK  167  A    between atoms: _396  and  _397
REMARK  168  A    between atoms: _401  and  _403
REMARK  169  A    between atoms: _403  and  _404
REMARK  170  A    between atoms: _403  and  _406
REMARK  171  A    between atoms: _406  and  _407
REMARK  172  A    between atoms: _407  and  _408
REMARK  173  A    between atoms: _410  and  _412
REMARK  174  A    between atoms: _412  and  _413
REMARK  175  A    between atoms: _412  and  _415
REMARK  176  A    between atoms: _415  and  _416
REMARK  177  A    between atoms: _419  and  _421
REMARK  178  A    between atoms: _421  and  _422
REMARK  179  A    between atoms: _424  and  _426
REMARK  180  A    between atoms: _426  and  _427
REMARK  181  A    between atoms: _429  and  _431
REMARK  182  A    between atoms: _431  and  _432
REMARK  183  A    between atoms: _431  and  _434
REMARK  184  A    between atoms: _434  and  _435
REMARK  185  A    between atoms: _438  and  _440
REMARK  186  A    between atoms: _440  and  _441
REMARK  187  A    between atoms: _443  and  _445
REMARK  188  A    between atoms: _445  and  _446
REMARK  189  A    between atoms: _448  and  _450
REMARK  190  A    between atoms: _450  and  _451
REMARK  191  A    between atoms: _450  and  _453
REMARK  192  A    between atoms: _453  and  _454
REMARK  193  A    between atoms: _460  and  _462
REMARK  194  A    between atoms: _462  and  _463
REMARK  195  A    between atoms: _462  and  _465
REMARK  196  A    between atoms: _465  and  _466
REMARK  197  A    between atoms: _469  and  _471
REMARK  198  A    between atoms: _471  and  _472
REMARK  199  A    between atoms: _471  and  _474
REMARK  200  A    between atoms: _477  and  _479
REMARK  201  A    between atoms: _479  and  _480
REMARK  202  A    between atoms: _479  and  _482
REMARK  203  A    between atoms: _482  and  _483
REMARK  204  A    between atoms: _486  and  _488
REMARK  205  A    between atoms: _488  and  _489
REMARK  206  A    between atoms: _488  and  _491
REMARK  207  A    between atoms: _491  and  _492
REMARK  208  A    between atoms: _496  and  _497
REMARK  209  A    between atoms: _502  and  _504
REMARK  210  A    between atoms: _504  and  _505
REMARK  211  A    between atoms: _508  and  _510
REMARK  212  A    between atoms: _510  and  _511
REMARK  213  A    between atoms: _510  and  _513
REMARK  214  A    between atoms: _513  and  _514
REMARK  215  A    between atoms: _519  and  _521
REMARK  216  A    between atoms: _521  and  _522
REMARK  217  A    between atoms: _521  and  _524
REMARK  218  A    between atoms: _524  and  _525
REMARK  219  A    between atoms: _528  and  _530
REMARK  220  A    between atoms: _530  and  _531
REMARK  221  A    between atoms: _530  and  _533
REMARK  222  A    between atoms: _533  and  _534
REMARK  223  A    between atoms: _537  and  _539
REMARK  224  A    between atoms: _539  and  _540
REMARK  225  A    between atoms: _542  and  _544
REMARK  226  A    between atoms: _544  and  _545
REMARK  227  A    between atoms: _544  and  _547
REMARK  228  A    between atoms: _547  and  _548
REMARK  229  A    between atoms: _548  and  _549
REMARK  230  A    between atoms: _549  and  _550
REMARK  231  A    between atoms: _559  and  _561
REMARK  232  A    between atoms: _561  and  _562
REMARK  233  A    between atoms: _561  and  _564
REMARK  234  A    between atoms: _564  and  _565
REMARK                            x       y       z     vdW  Elec       q    Type
REMARK                         _______ _______ _______ _____ _____    ______ ____
ROOT
ATOM      1  O   HOH     1      30.028  25.327   6.036  0.00  0.00    +0.000 OA
ENDROOT
TORSDOF 0
REMARK  Name = ../refined-set-2016/1sdv/1sdv_pocket.pdb
REMARK  234 active torsions:
REMARK  status: ('A' for Active; 'I' for Inactive)
REMARK    1  A    between atoms: _1  and  _3
REMARK    2  A    between atoms: _3  and  _4
REMARK    3  A    between atoms: _3  and  _6
REMARK    4  A    between atoms: _6  and  _7
REMARK    5  A    between atoms: _7  and  _8
REMARK    6  A    between atoms: _8  and  _9
REMARK    7  A    between atoms: _18  and  _20
REMARK    8  A    between atoms: _20  and  _21
REMARK    9  A    between atoms: _20  and  _23
REMARK   10  A    between atoms: _23  and  _24
REMARK   11  A    between atoms: _27  and  _29
REMARK   12  A    between atoms: _29  and  _30
REMARK   13  A    between atoms: _29  and  _32
REMARK   14  A    between atoms: _32  and  _33
REMARK   15  A    between atoms: _36  and  _38
REMARK   16  A    between atoms: _38  and  _39
REMARK   17  A    between atoms: _38  and  _41
REMARK   18  A    between atoms: _41  and  _42
REMARK   19  A    between atoms: _45  and  _47
REMARK   20  A    between atoms: _47  and  _48
REMARK   21  A    between atoms: _47  and  _50
REMARK   22  A    between atoms: _50  and  _51
REMARK   23  A    between atoms: _54  and  _56
REMARK   24  A    between atoms: _56  and  _57
REMARK   25  A    between atoms: _56  and  _59
REMARK   26  A    between atoms: _59  and  _60
REMARK   27  A    between atoms: _63  and  _65
REMARK   28  A    between atoms: _65  and  _66
REMARK   29  A    between atoms: _68  and  _70
REMARK   30  A    between atoms: _70  and  _71
REMARK   31  A    between atoms: _74  and  _76
REMARK   32  A    between atoms: _76  and  _77
REMARK   33  A    between atoms: _76  and  _79
REMARK   34  A    between atoms: _79  and  _80
REMARK   35  A    between atoms: _83  and  _85
REMARK   36  A    between atoms: _85  and  _86
REMARK   37  A    between atoms: _85  and  _88
REMARK   38  A    between atoms: _88  and  _89
REMARK   39  A    between atoms: _92  and  _94
REMARK   40  A    between atoms: _94  and  _95
REMARK   41  A    between atoms: _94  and  _97
REMARK   42  A    between atoms: _97  and  _98
REMARK   43  A    between atoms: _101  and  _103
REMARK   44  A    between atoms: _103  and  _104
REMARK   45  A    between atoms: _103  and  _106
REMARK   46  A    between atoms: _109  and  _111
REMARK   47  A    between atoms: _111  and  _112
REMARK   48  A    between atoms: _111  and  _114
REMARK   49  A    between atoms: _114  and  _115
REMARK   50  A    between atoms: _115  and  _116
REMARK   51  A    between atoms: _116  and  _117
REMARK   52  A    between atoms: _117  and  _118
REMARK   53  A    between atoms: _122  and  _124
REMARK   54  A    between atoms: _124  and  _125
REMARK   55  A    between atoms: _124  and  _127
REMARK   56  A    between atoms: _127  and  _128
REMARK   57  A    between atoms: _128  and  _129
REMARK   58  A    between atoms: _131  and  _133
REMARK   59  A    between atoms: _133  and  _134
REMARK   60  A    between atoms: _133  and  _136
REMARK   61  A    between atoms: _136  and  _137
REMARK   62  A    between atoms: _140  and  _142
REMARK   63  A    between atoms: _142  and  _143
REMARK   64  A    between atoms: _145  and  _147
REMARK   65  A    between atoms: _147  and  _148
REMARK   66  A    between atoms: _150  and  _152
REMARK   67  A    between atoms: _152  and  _153
REMARK   68  A    between atoms: _152  and  _155
REMARK   69  A    between atoms: _155  and  _156
REMARK   70  A    between atoms: _159  and  _161
REMARK   71  A    between atoms: _161  and  _162
REMARK   72  A    between atoms: _164  and  _166
REMARK   73  A    between atoms: _166  and  _167
REMARK   74  A    between atoms: _169  and  _171
REMARK   75  A    between atoms: _171  and  _172
REMARK   76  A    between atoms: _171  and  _174
REMARK   77  A    between atoms: _174  and  _175
REMARK   78  A    between atoms: _181  and  _183
REMARK   79  A    between atoms: _183  and  _184
REMARK   80  A    between atoms: _183  and  _186
REMARK   81  A    between atoms: _186  and  _187
REMARK   82  A    between atoms: _190  and  _192
REMARK   83  A    between atoms: _192  and  _193
REMARK   84  A    between atoms: _192  and  _195
REMARK   85  A    between atoms: _198  and  _200
REMARK   86  A    between atoms: _200  and  _201
REMARK   87  A    between atoms: _200  and  _203
REMARK   88  A    between atoms: _203  and  _204
REMARK   89  A    between atoms: _207  and  _209
REMARK   90  A    between atoms: _209  and  _210
REMARK   91  A    between atoms: _209  and  _212
REMARK   92  A    between atoms: _212  and  _213
REMARK   93  A    between atoms: _217  and  _218
REMARK   94  A    between atoms: _223  and  _225
REMARK   95  A    between atoms: _225  and  _226
REMARK   96  A    between atoms: _229  and  _231
REMARK   97  A    between atoms: _231  and  _232
REMARK   98  A    between atoms: _231  and  _234
REMARK   99  A    between atoms: _234  and  _235
REMARK  100  A    between atoms: _240  and  _242
REMARK  101  A    between atoms: _242  and  _243
REMARK  102  A    between atoms: _242  and  _245
REMARK  103  A    between atoms: _245  and  _246
REMARK  104  A    between atoms: _249  and  _251
REMARK  105  A    between atoms: _251  and  _252
REMARK  106  A    between atoms: _251  and  _254
REMARK  107  A    between atoms: _254  and  _255
REMARK  108  A    between atoms: _258  and  _260
REMARK  109  A    between atoms: _260  and  _261
REMARK  110  A    between atoms: _263  and  _265
REMARK  111  A    between atoms: _265  and  _266
REMARK  112  A    between atoms: _265  and  _268
REMARK  113  A    between atoms: _268  and  _269
REMARK  114  A    between atoms: _269  and  _270
REMARK  115  A    between atoms: _270  and  _271
REMARK  116  A    between atoms: _280  and  _282
REMARK  117  A    between atoms: _282  and  _283
REMARK  118  A    between atoms: _282  and  _285
REMARK  119  A    between atoms: _285  and  _286
REMARK  120  A    between atoms: _286  and  _287
REMARK  121  A    between atoms: _287  and  _288
REMARK  122  A    between atoms: _297  and  _299
REMARK  123  A    between atoms: _299  and  _300
REMARK  124  A    between atoms: _299  and  _302
REMARK  125  A    between atoms: _302  and  _303
REMARK  126  A    between atoms: _306  and  _308
REMARK  127  A    between atoms: _308  and  _309
REMARK  128  A    between atoms: _308  and  _311
REMARK  129  A    between atoms: _311  and  _312
REMARK  130  A    between atoms: _315  and  _317
REMARK  131  A    between atoms: _317  and  _318
REMARK  132  A    between atoms: _317  and  _320
REMARK  133  A    between atoms: _320  and  _321
REMARK  134  A    between atoms: _324  and  _326
REMARK  135  A    between atoms: _326  and  _327
REMARK  136  A    between atoms: _326  and  _329
REMARK  137  A    between atoms: _329  and  _330
REMARK  138  A    between atoms: _333  and  _335
REMARK  139  A    between atoms: _335  and  _336
REMARK  140  A    between atoms: _338  and  _340
REMARK  141  A    between atoms: _340  and  _341
REMARK  142  A    between atoms: _344  and  _346
REMARK  143  A    between atoms: _346  and  _347
REMARK  144  A    between atoms: _346  and  _349
REMARK  145  A    between atoms: _349  and  _350
REMARK  146  A    between atoms: _353  and  _355
REMARK  147  A    between atoms: _355  and  _356
REMARK  148  A    between atoms: _355  and  _358
REMARK  149  A    between atoms: _358  and  _359
REMARK  150  A    between atoms: _362  and  _364
REMARK  151  A    between atoms: _364  and  _365
REMARK  152  A    between atoms: _364  and  _367
REMARK  153  A    between atoms: _367  and  _368
REMARK  154  A    between atoms: _371  and  _373
REMARK  155  A    between atoms: _373  and  _374
REMARK  156  A    between atoms: _373  and  _376
REMARK  157  A    between atoms: _379  and  _381
REMARK  158  A    between atoms: _381  and  _382
REMARK  159  A    between atoms: _381  and  _384
REMARK  160  A    between atoms: _384  and  _385
REMARK  161  A    between atoms: _388  and  _390
REMARK  162  A    between atoms: _390  and  _391
REMARK  163  A    between atoms: _390  and  _393
REMARK  164  A    between atoms: _393  and  _394
REMARK  165  A    between atoms: _394  and  _395
REMARK  166  A    between atoms: _395  and  _396
REMARK  167  A    between atoms: _396  and  _397
REMARK  168  A    between atoms: _401  and  _403
REMARK  169  A    between atoms: _403  and  _404
REMARK  170  A    between atoms: _403  and  _406
REMARK  171  A    between atoms: _406  and  _407
REMARK  172  A    between atoms: _407  and  _408
REMARK  173  A    between atoms: _410  and  _412
REMARK  174  A    between atoms: _412  and  _413
REMARK  175  A    between atoms: _412  and  _415
REMARK  176  A    between atoms: _415  and  _416
REMARK  177  A    between atoms: _419  and  _421
REMARK  178  A    between atoms: _421  and  _422
REMARK  179  A    between atoms: _424  and  _426
REMARK  180  A    between atoms: _426  and  _427
REMARK  181  A    between atoms: _429  and  _431
REMARK  182  A    between atoms: _431  and  _432
REMARK  183  A    between atoms: _431  and  _434
REMARK  184  A    between atoms: _434  and  _435
REMARK  185  A    between atoms: _438  and  _440
REMARK  186  A    between atoms: _440  and  _441
REMARK  187  A    between atoms: _443  and  _445
REMARK  188  A    between atoms: _445  and  _446
REMARK  189  A    between atoms: _448  and  _450
REMARK  190  A    between atoms: _450  and  _451
REMARK  191  A    between atoms: _450  and  _453
REMARK  192  A    between atoms: _453  and  _454
REMARK  193  A    between atoms: _460  and  _462
REMARK  194  A    between atoms: _462  and  _463
REMARK  195  A    between atoms: _462  and  _465
REMARK  196  A    between atoms: _465  and  _466
REMARK  197  A    between atoms: _469  and  _471
REMARK  198  A    between atoms: _471  and  _472
REMARK  199  A    between atoms: _471  and  _474
REMARK  200  A    between atoms: _477  and  _479
REMARK  201  A    between atoms: _479  and  _480
REMARK  202  A    between atoms: _479  and  _482
REMARK  203  A    between atoms: _482  and  _483
REMARK  204  A    between atoms: _486  and  _488
REMARK  205  A    between atoms: _488  and  _489
REMARK  206  A    between atoms: _488  and  _491
REMARK  207  A    between atoms: _491  and  _492
REMARK  208  A    between atoms: _496  and  _497
REMARK  209  A    between atoms: _502  and  _504
REMARK  210  A    between atoms: _504  and  _505
REMARK  211  A    between atoms: _508  and  _510
REMARK  212  A    between atoms: _510  and  _511
REMARK  213  A    between atoms: _510  and  _513
REMARK  214  A    between atoms: _513  and  _514
REMARK  215  A    between atoms: _519  and  _521
REMARK  216  A    between atoms: _521  and  _522
REMARK  217  A    between atoms: _521  and  _524
REMARK  218  A    between atoms: _524  and  _525
REMARK  219  A    between atoms: _528  and  _530
REMARK  220  A    between atoms: _530  and  _531
REMARK  221  A    between atoms: _530  and  _533
REMARK  222  A    between atoms: _533  and  _534
REMARK  223  A    between atoms: _537  and  _539
REMARK  224  A    between atoms: _539  and  _540
REMARK  225  A    between atoms: _542  and  _544
REMARK  226  A    between atoms: _544  and  _545
REMARK  227  A    between atoms: _544  and  _547
REMARK  228  A    between atoms: _547  and  _548
REMARK  229  A    between atoms: _548  and  _549
REMARK  230  A    between atoms: _549  and  _550
REMARK  231  A    between atoms: _559  and  _561
REMARK  232  A    between atoms: _561  and  _562
REMARK  233  A    between atoms: _561  and  _564
REMARK  234  A    between atoms: _564  and  _565
REMARK                            x       y       z     vdW  Elec       q    Type
REMARK                         _______ _______ _______ _____ _____    ______ ____
ROOT
ATOM      1  O   HOH     1      18.071   8.471  12.105  0.00  0.00    +0.000 OA
ENDROOT
TORSDOF 0
REMARK  Name = ../refined-set-2016/1sdv/1sdv_pocket.pdb
REMARK  234 active torsions:
REMARK  status: ('A' for Active; 'I' for Inactive)
REMARK    1  A    between atoms: _1  and  _3
REMARK    2  A    between atoms: _3  and  _4
REMARK    3  A    between atoms: _3  and  _6
REMARK    4  A    between atoms: _6  and  _7
REMARK    5  A    between atoms: _7  and  _8
REMARK    6  A    between atoms: _8  and  _9
REMARK    7  A    between atoms: _18  and  _20
REMARK    8  A    between atoms: _20  and  _21
REMARK    9  A    between atoms: _20  and  _23
REMARK   10  A    between atoms: _23  and  _24
REMARK   11  A    between atoms: _27  and  _29
REMARK   12  A    between atoms: _29  and  _30
REMARK   13  A    between atoms: _29  and  _32
REMARK   14  A    between atoms: _32  and  _33
REMARK   15  A    between atoms: _36  and  _38
REMARK   16  A    between atoms: _38  and  _39
REMARK   17  A    between atoms: _38  and  _41
REMARK   18  A    between atoms: _41  and  _42
REMARK   19  A    between atoms: _45  and  _47
REMARK   20  A    between atoms: _47  and  _48
REMARK   21  A    between atoms: _47  and  _50
REMARK   22  A    between atoms: _50  and  _51
REMARK   23  A    between atoms: _54  and  _56
REMARK   24  A    between atoms: _56  and  _57
REMARK   25  A    between atoms: _56  and  _59
REMARK   26  A    between atoms: _59  and  _60
REMARK   27  A    between atoms: _63  and  _65
REMARK   28  A    between atoms: _65  and  _66
REMARK   29  A    between atoms: _68  and  _70
REMARK   30  A    between atoms: _70  and  _71
REMARK   31  A    between atoms: _74  and  _76
REMARK   32  A    between atoms: _76  and  _77
REMARK   33  A    between atoms: _76  and  _79
REMARK   34  A    between atoms: _79  and  _80
REMARK   35  A    between atoms: _83  and  _85
REMARK   36  A    between atoms: _85  and  _86
REMARK   37  A    between atoms: _85  and  _88
REMARK   38  A    between atoms: _88  and  _89
REMARK   39  A    between atoms: _92  and  _94
REMARK   40  A    between atoms: _94  and  _95
REMARK   41  A    between atoms: _94  and  _97
REMARK   42  A    between atoms: _97  and  _98
REMARK   43  A    between atoms: _101  and  _103
REMARK   44  A    between atoms: _103  and  _104
REMARK   45  A    between atoms: _103  and  _106
REMARK   46  A    between atoms: _109  and  _111
REMARK   47  A    between atoms: _111  and  _112
REMARK   48  A    between atoms: _111  and  _114
REMARK   49  A    between atoms: _114  and  _115
REMARK   50  A    between atoms: _115  and  _116
REMARK   51  A    between atoms: _116  and  _117
REMARK   52  A    between atoms: _117  and  _118
REMARK   53  A    between atoms: _122  and  _124
REMARK   54  A    between atoms: _124  and  _125
REMARK   55  A    between atoms: _124  and  _127
REMARK   56  A    between atoms: _127  and  _128
REMARK   57  A    between atoms: _128  and  _129
REMARK   58  A    between atoms: _131  and  _133
REMARK   59  A    between atoms: _133  and  _134
REMARK   60  A    between atoms: _133  and  _136
REMARK   61  A    between atoms: _136  and  _137
REMARK   62  A    between atoms: _140  and  _142
REMARK   63  A    between atoms: _142  and  _143
REMARK   64  A    between atoms: _145  and  _147
REMARK   65  A    between atoms: _147  and  _148
REMARK   66  A    between atoms: _150  and  _152
REMARK   67  A    between atoms: _152  and  _153
REMARK   68  A    between atoms: _152  and  _155
REMARK   69  A    between atoms: _155  and  _156
REMARK   70  A    between atoms: _159  and  _161
REMARK   71  A    between atoms: _161  and  _162
REMARK   72  A    between atoms: _164  and  _166
REMARK   73  A    between atoms: _166  and  _167
REMARK   74  A    between atoms: _169  and  _171
REMARK   75  A    between atoms: _171  and  _172
REMARK   76  A    between atoms: _171  and  _174
REMARK   77  A    between atoms: _174  and  _175
REMARK   78  A    between atoms: _181  and  _183
REMARK   79  A    between atoms: _183  and  _184
REMARK   80  A    between atoms: _183  and  _186
REMARK   81  A    between atoms: _186  and  _187
REMARK   82  A    between atoms: _190  and  _192
REMARK   83  A    between atoms: _192  and  _193
REMARK   84  A    between atoms: _192  and  _195
REMARK   85  A    between atoms: _198  and  _200
REMARK   86  A    between atoms: _200  and  _201
REMARK   87  A    between atoms: _200  and  _203
REMARK   88  A    between atoms: _203  and  _204
REMARK   89  A    between atoms: _207  and  _209
REMARK   90  A    between atoms: _209  and  _210
REMARK   91  A    between atoms: _209  and  _212
REMARK   92  A    between atoms: _212  and  _213
REMARK   93  A    between atoms: _217  and  _218
REMARK   94  A    between atoms: _223  and  _225
REMARK   95  A    between atoms: _225  and  _226
REMARK   96  A    between atoms: _229  and  _231
REMARK   97  A    between atoms: _231  and  _232
REMARK   98  A    between atoms: _231  and  _234
REMARK   99  A    between atoms: _234  and  _235
REMARK  100  A    between atoms: _240  and  _242
REMARK  101  A    between atoms: _242  and  _243
REMARK  102  A    between atoms: _242  and  _245
REMARK  103  A    between atoms: _245  and  _246
REMARK  104  A    between atoms: _249  and  _251
REMARK  105  A    between atoms: _251  and  _252
REMARK  106  A    between atoms: _251  and  _254
REMARK  107  A    between atoms: _254  and  _255
REMARK  108  A    between atoms: _258  and  _260
REMARK  109  A    between atoms: _260  and  _261
REMARK  110  A    between atoms: _263  and  _265
REMARK  111  A    between atoms: _265  and  _266
REMARK  112  A    between atoms: _265  and  _268
REMARK  113  A    between atoms: _268  and  _269
REMARK  114  A    between atoms: _269  and  _270
REMARK  115  A    between atoms: _270  and  _271
REMARK  116  A    between atoms: _280  and  _282
REMARK  117  A    between atoms: _282  and  _283
REMARK  118  A    between atoms: _282  and  _285
REMARK  119  A    between atoms: _285  and  _286
REMARK  120  A    between atoms: _286  and  _287
REMARK  121  A    between atoms: _287  and  _288
REMARK  122  A    between atoms: _297  and  _299
REMARK  123  A    between atoms: _299  and  _300
REMARK  124  A    between atoms: _299  and  _302
REMARK  125  A    between atoms: _302  and  _303
REMARK  126  A    between atoms: _306  and  _308
REMARK  127  A    between atoms: _308  and  _309
REMARK  128  A    between atoms: _308  and  _311
REMARK  129  A    between atoms: _311  and  _312
REMARK  130  A    between atoms: _315  and  _317
REMARK  131  A    between atoms: _317  and  _318
REMARK  132  A    between atoms: _317  and  _320
REMARK  133  A    between atoms: _320  and  _321
REMARK  134  A    between atoms: _324  and  _326
REMARK  135  A    between atoms: _326  and  _327
REMARK  136  A    between atoms: _326  and  _329
REMARK  137  A    between atoms: _329  and  _330
REMARK  138  A    between atoms: _333  and  _335
REMARK  139  A    between atoms: _335  and  _336
REMARK  140  A    between atoms: _338  and  _340
REMARK  141  A    between atoms: _340  and  _341
REMARK  142  A    between atoms: _344  and  _346
REMARK  143  A    between atoms: _346  and  _347
REMARK  144  A    between atoms: _346  and  _349
REMARK  145  A    between atoms: _349  and  _350
REMARK  146  A    between atoms: _353  and  _355
REMARK  147  A    between atoms: _355  and  _356
REMARK  148  A    between atoms: _355  and  _358
REMARK  149  A    between atoms: _358  and  _359
REMARK  150  A    between atoms: _362  and  _364
REMARK  151  A    between atoms: _364  and  _365
REMARK  152  A    between atoms: _364  and  _367
REMARK  153  A    between atoms: _367  and  _368
REMARK  154  A    between atoms: _371  and  _373
REMARK  155  A    between atoms: _373  and  _374
REMARK  156  A    between atoms: _373  and  _376
REMARK  157  A    between atoms: _379  and  _381
REMARK  158  A    between atoms: _381  and  _382
REMARK  159  A    between atoms: _381  and  _384
REMARK  160  A    between atoms: _384  and  _385
REMARK  161  A    between atoms: _388  and  _390
REMARK  162  A    between atoms: _390  and  _391
REMARK  163  A    between atoms: _390  and  _393
REMARK  164  A    between atoms: _393  and  _394
REMARK  165  A    between atoms: _394  and  _395
REMARK  166  A    between atoms: _395  and  _396
REMARK  167  A    between atoms: _396  and  _397
REMARK  168  A    between atoms: _401  and  _403
REMARK  169  A    between atoms: _403  and  _404
REMARK  170  A    between atoms: _403  and  _406
REMARK  171  A    between atoms: _406  and  _407
REMARK  172  A    between atoms: _407  and  _408
REMARK  173  A    between atoms: _410  and  _412
REMARK  174  A    between atoms: _412  and  _413
REMARK  175  A    between atoms: _412  and  _415
REMARK  176  A    between atoms: _415  and  _416
REMARK  177  A    between atoms: _419  and  _421
REMARK  178  A    between atoms: _421  and  _422
REMARK  179  A    between atoms: _424  and  _426
REMARK  180  A    between atoms: _426  and  _427
REMARK  181  A    between atoms: _429  and  _431
REMARK  182  A    between atoms: _431  and  _432
REMARK  183  A    between atoms: _431  and  _434
REMARK  184  A    between atoms: _434  and  _435
REMARK  185  A    between atoms: _438  and  _440
REMARK  186  A    between atoms: _440  and  _441
REMARK  187  A    between atoms: _443  and  _445
REMARK  188  A    between atoms: _445  and  _446
REMARK  189  A    between atoms: _448  and  _450
REMARK  190  A    between atoms: _450  and  _451
REMARK  191  A    between atoms: _450  and  _453
REMARK  192  A    between atoms: _453  and  _454
REMARK  193  A    between atoms: _460  and  _462
REMARK  194  A    between atoms: _462  and  _463
REMARK  195  A    between atoms: _462  and  _465
REMARK  196  A    between atoms: _465  and  _466
REMARK  197  A    between atoms: _469  and  _471
REMARK  198  A    between atoms: _471  and  _472
REMARK  199  A    between atoms: _471  and  _474
REMARK  200  A    between atoms: _477  and  _479
REMARK  201  A    between atoms: _479  and  _480
REMARK  202  A    between atoms: _479  and  _482
REMARK  203  A    between atoms: _482  and  _483
REMARK  204  A    between atoms: _486  and  _488
REMARK  205  A    between atoms: _488  and  _489
REMARK  206  A    between atoms: _488  and  _491
REMARK  207  A    between atoms: _491  and  _492
REMARK  208  A    between atoms: _496  and  _497
REMARK  209  A    between atoms: _502  and  _504
REMARK  210  A    between atoms: _504  and  _505
REMARK  211  A    between atoms: _508  and  _510
REMARK  212  A    between atoms: _510  and  _511
REMARK  213  A    between atoms: _510  and  _513
REMARK  214  A    between atoms: _513  and  _514
REMARK  215  A    between atoms: _519  and  _521
REMARK  216  A    between atoms: _521  and  _522
REMARK  217  A    between atoms: _521  and  _524
REMARK  218  A    between atoms: _524  and  _525
REMARK  219  A    between atoms: _528  and  _530
REMARK  220  A    between atoms: _530  and  _531
REMARK  221  A    between atoms: _530  and  _533
REMARK  222  A    between atoms: _533  and  _534
REMARK  223  A    between atoms: _537  and  _539
REMARK  224  A    between atoms: _539  and  _540
REMARK  225  A    between atoms: _542  and  _544
REMARK  226  A    between atoms: _544  and  _545
REMARK  227  A    between atoms: _544  and  _547
REMARK  228  A    between atoms: _547  and  _548
REMARK  229  A    between atoms: _548  and  _549
REMARK  230  A    between atoms: _549  and  _550
REMARK  231  A    between atoms: _559  and  _561
REMARK  232  A    between atoms: _561  and  _562
REMARK  233  A    between atoms: _561  and  _564
REMARK  234  A    between atoms: _564  and  _565
REMARK                            x       y       z     vdW  Elec       q    Type
REMARK                         _______ _______ _______ _____ _____    ______ ____
ROOT
ATOM      1  O   HOH     1      32.592  24.966   7.649  0.00  0.00    +0.000 OA
ENDROOT
TORSDOF 0
REMARK  Name = ../refined-set-2016/1sdv/1sdv_pocket.pdb
REMARK  234 active torsions:
REMARK  status: ('A' for Active; 'I' for Inactive)
REMARK    1  A    between atoms: _1  and  _3
REMARK    2  A    between atoms: _3  and  _4
REMARK    3  A    between atoms: _3  and  _6
REMARK    4  A    between atoms: _6  and  _7
REMARK    5  A    between atoms: _7  and  _8
REMARK    6  A    between atoms: _8  and  _9
REMARK    7  A    between atoms: _18  and  _20
REMARK    8  A    between atoms: _20  and  _21
REMARK    9  A    between atoms: _20  and  _23
REMARK   10  A    between atoms: _23  and  _24
REMARK   11  A    between atoms: _27  and  _29
REMARK   12  A    between atoms: _29  and  _30
REMARK   13  A    between atoms: _29  and  _32
REMARK   14  A    between atoms: _32  and  _33
REMARK   15  A    between atoms: _36  and  _38
REMARK   16  A    between atoms: _38  and  _39
REMARK   17  A    between atoms: _38  and  _41
REMARK   18  A    between atoms: _41  and  _42
REMARK   19  A    between atoms: _45  and  _47
REMARK   20  A    between atoms: _47  and  _48
REMARK   21  A    between atoms: _47  and  _50
REMARK   22  A    between atoms: _50  and  _51
REMARK   23  A    between atoms: _54  and  _56
REMARK   24  A    between atoms: _56  and  _57
REMARK   25  A    between atoms: _56  and  _59
REMARK   26  A    between atoms: _59  and  _60
REMARK   27  A    between atoms: _63  and  _65
REMARK   28  A    between atoms: _65  and  _66
REMARK   29  A    between atoms: _68  and  _70
REMARK   30  A    between atoms: _70  and  _71
REMARK   31  A    between atoms: _74  and  _76
REMARK   32  A    between atoms: _76  and  _77
REMARK   33  A    between atoms: _76  and  _79
REMARK   34  A    between atoms: _79  and  _80
REMARK   35  A    between atoms: _83  and  _85
REMARK   36  A    between atoms: _85  and  _86
REMARK   37  A    between atoms: _85  and  _88
REMARK   38  A    between atoms: _88  and  _89
REMARK   39  A    between atoms: _92  and  _94
REMARK   40  A    between atoms: _94  and  _95
REMARK   41  A    between atoms: _94  and  _97
REMARK   42  A    between atoms: _97  and  _98
REMARK   43  A    between atoms: _101  and  _103
REMARK   44  A    between atoms: _103  and  _104
REMARK   45  A    between atoms: _103  and  _106
REMARK   46  A    between atoms: _109  and  _111
REMARK   47  A    between atoms: _111  and  _112
REMARK   48  A    between atoms: _111  and  _114
REMARK   49  A    between atoms: _114  and  _115
REMARK   50  A    between atoms: _115  and  _116
REMARK   51  A    between atoms: _116  and  _117
REMARK   52  A    between atoms: _117  and  _118
REMARK   53  A    between atoms: _122  and  _124
REMARK   54  A    between atoms: _124  and  _125
REMARK   55  A    between atoms: _124  and  _127
REMARK   56  A    between atoms: _127  and  _128
REMARK   57  A    between atoms: _128  and  _129
REMARK   58  A    between atoms: _131  and  _133
REMARK   59  A    between atoms: _133  and  _134
REMARK   60  A    between atoms: _133  and  _136
REMARK   61  A    between atoms: _136  and  _137
REMARK   62  A    between atoms: _140  and  _142
REMARK   63  A    between atoms: _142  and  _143
REMARK   64  A    between atoms: _145  and  _147
REMARK   65  A    between atoms: _147  and  _148
REMARK   66  A    between atoms: _150  and  _152
REMARK   67  A    between atoms: _152  and  _153
REMARK   68  A    between atoms: _152  and  _155
REMARK   69  A    between atoms: _155  and  _156
REMARK   70  A    between atoms: _159  and  _161
REMARK   71  A    between atoms: _161  and  _162
REMARK   72  A    between atoms: _164  and  _166
REMARK   73  A    between atoms: _166  and  _167
REMARK   74  A    between atoms: _169  and  _171
REMARK   75  A    between atoms: _171  and  _172
REMARK   76  A    between atoms: _171  and  _174
REMARK   77  A    between atoms: _174  and  _175
REMARK   78  A    between atoms: _181  and  _183
REMARK   79  A    between atoms: _183  and  _184
REMARK   80  A    between atoms: _183  and  _186
REMARK   81  A    between atoms: _186  and  _187
REMARK   82  A    between atoms: _190  and  _192
REMARK   83  A    between atoms: _192  and  _193
REMARK   84  A    between atoms: _192  and  _195
REMARK   85  A    between atoms: _198  and  _200
REMARK   86  A    between atoms: _200  and  _201
REMARK   87  A    between atoms: _200  and  _203
REMARK   88  A    between atoms: _203  and  _204
REMARK   89  A    between atoms: _207  and  _209
REMARK   90  A    between atoms: _209  and  _210
REMARK   91  A    between atoms: _209  and  _212
REMARK   92  A    between atoms: _212  and  _213
REMARK   93  A    between atoms: _217  and  _218
REMARK   94  A    between atoms: _223  and  _225
REMARK   95  A    between atoms: _225  and  _226
REMARK   96  A    between atoms: _229  and  _231
REMARK   97  A    between atoms: _231  and  _232
REMARK   98  A    between atoms: _231  and  _234
REMARK   99  A    between atoms: _234  and  _235
REMARK  100  A    between atoms: _240  and  _242
REMARK  101  A    between atoms: _242  and  _243
REMARK  102  A    between atoms: _242  and  _245
REMARK  103  A    between atoms: _245  and  _246
REMARK  104  A    between atoms: _249  and  _251
REMARK  105  A    between atoms: _251  and  _252
REMARK  106  A    between atoms: _251  and  _254
REMARK  107  A    between atoms: _254  and  _255
REMARK  108  A    between atoms: _258  and  _260
REMARK  109  A    between atoms: _260  and  _261
REMARK  110  A    between atoms: _263  and  _265
REMARK  111  A    between atoms: _265  and  _266
REMARK  112  A    between atoms: _265  and  _268
REMARK  113  A    between atoms: _268  and  _269
REMARK  114  A    between atoms: _269  and  _270
REMARK  115  A    between atoms: _270  and  _271
REMARK  116  A    between atoms: _280  and  _282
REMARK  117  A    between atoms: _282  and  _283
REMARK  118  A    between atoms: _282  and  _285
REMARK  119  A    between atoms: _285  and  _286
REMARK  120  A    between atoms: _286  and  _287
REMARK  121  A    between atoms: _287  and  _288
REMARK  122  A    between atoms: _297  and  _299
REMARK  123  A    between atoms: _299  and  _300
REMARK  124  A    between atoms: _299  and  _302
REMARK  125  A    between atoms: _302  and  _303
REMARK  126  A    between atoms: _306  and  _308
REMARK  127  A    between atoms: _308  and  _309
REMARK  128  A    between atoms: _308  and  _311
REMARK  129  A    between atoms: _311  and  _312
REMARK  130  A    between atoms: _315  and  _317
REMARK  131  A    between atoms: _317  and  _318
REMARK  132  A    between atoms: _317  and  _320
REMARK  133  A    between atoms: _320  and  _321
REMARK  134  A    between atoms: _324  and  _326
REMARK  135  A    between atoms: _326  and  _327
REMARK  136  A    between atoms: _326  and  _329
REMARK  137  A    between atoms: _329  and  _330
REMARK  138  A    between atoms: _333  and  _335
REMARK  139  A    between atoms: _335  and  _336
REMARK  140  A    between atoms: _338  and  _340
REMARK  141  A    between atoms: _340  and  _341
REMARK  142  A    between atoms: _344  and  _346
REMARK  143  A    between atoms: _346  and  _347
REMARK  144  A    between atoms: _346  and  _349
REMARK  145  A    between atoms: _349  and  _350
REMARK  146  A    between atoms: _353  and  _355
REMARK  147  A    between atoms: _355  and  _356
REMARK  148  A    between atoms: _355  and  _358
REMARK  149  A    between atoms: _358  and  _359
REMARK  150  A    between atoms: _362  and  _364
REMARK  151  A    between atoms: _364  and  _365
REMARK  152  A    between atoms: _364  and  _367
REMARK  153  A    between atoms: _367  and  _368
REMARK  154  A    between atoms: _371  and  _373
REMARK  155  A    between atoms: _373  and  _374
REMARK  156  A    between atoms: _373  and  _376
REMARK  157  A    between atoms: _379  and  _381
REMARK  158  A    between atoms: _381  and  _382
REMARK  159  A    between atoms: _381  and  _384
REMARK  160  A    between atoms: _384  and  _385
REMARK  161  A    between atoms: _388  and  _390
REMARK  162  A    between atoms: _390  and  _391
REMARK  163  A    between atoms: _390  and  _393
REMARK  164  A    between atoms: _393  and  _394
REMARK  165  A    between atoms: _394  and  _395
REMARK  166  A    between atoms: _395  and  _396
REMARK  167  A    between atoms: _396  and  _397
REMARK  168  A    between atoms: _401  and  _403
REMARK  169  A    between atoms: _403  and  _404
REMARK  170  A    between atoms: _403  and  _406
REMARK  171  A    between atoms: _406  and  _407
REMARK  172  A    between atoms: _407  and  _408
REMARK  173  A    between atoms: _410  and  _412
REMARK  174  A    between atoms: _412  and  _413
REMARK  175  A    between atoms: _412  and  _415
REMARK  176  A    between atoms: _415  and  _416
REMARK  177  A    between atoms: _419  and  _421
REMARK  178  A    between atoms: _421  and  _422
REMARK  179  A    between atoms: _424  and  _426
REMARK  180  A    between atoms: _426  and  _427
REMARK  181  A    between atoms: _429  and  _431
REMARK  182  A    between atoms: _431  and  _432
REMARK  183  A    between atoms: _431  and  _434
REMARK  184  A    between atoms: _434  and  _435
REMARK  185  A    between atoms: _438  and  _440
REMARK  186  A    between atoms: _440  and  _441
REMARK  187  A    between atoms: _443  and  _445
REMARK  188  A    between atoms: _445  and  _446
REMARK  189  A    between atoms: _448  and  _450
REMARK  190  A    between atoms: _450  and  _451
REMARK  191  A    between atoms: _450  and  _453
REMARK  192  A    between atoms: _453  and  _454
REMARK  193  A    between atoms: _460  and  _462
REMARK  194  A    between atoms: _462  and  _463
REMARK  195  A    between atoms: _462  and  _465
REMARK  196  A    between atoms: _465  and  _466
REMARK  197  A    between atoms: _469  and  _471
REMARK  198  A    between atoms: _471  and  _472
REMARK  199  A    between atoms: _471  and  _474
REMARK  200  A    between atoms: _477  and  _479
REMARK  201  A    between atoms: _479  and  _480
REMARK  202  A    between atoms: _479  and  _482
REMARK  203  A    between atoms: _482  and  _483
REMARK  204  A    between atoms: _486  and  _488
REMARK  205  A    between atoms: _488  and  _489
REMARK  206  A    between atoms: _488  and  _491
REMARK  207  A    between atoms: _491  and  _492
REMARK  208  A    between atoms: _496  and  _497
REMARK  209  A    between atoms: _502  and  _504
REMARK  210  A    between atoms: _504  and  _505
REMARK  211  A    between atoms: _508  and  _510
REMARK  212  A    between atoms: _510  and  _511
REMARK  213  A    between atoms: _510  and  _513
REMARK  214  A    between atoms: _513  and  _514
REMARK  215  A    between atoms: _519  and  _521
REMARK  216  A    between atoms: _521  and  _522
REMARK  217  A    between atoms: _521  and  _524
REMARK  218  A    between atoms: _524  and  _525
REMARK  219  A    between atoms: _528  and  _530
REMARK  220  A    between atoms: _530  and  _531
REMARK  221  A    between atoms: _530  and  _533
REMARK  222  A    between atoms: _533  and  _534
REMARK  223  A    between atoms: _537  and  _539
REMARK  224  A    between atoms: _539  and  _540
REMARK  225  A    between atoms: _542  and  _544
REMARK  226  A    between atoms: _544  and  _545
REMARK  227  A    between atoms: _544  and  _547
REMARK  228  A    between atoms: _547  and  _548
REMARK  229  A    between atoms: _548  and  _549
REMARK  230  A    between atoms: _549  and  _550
REMARK  231  A    between atoms: _559  and  _561
REMARK  232  A    between atoms: _561  and  _562
REMARK  233  A    between atoms: _561  and  _564
REMARK  234  A    between atoms: _564  and  _565
REMARK                            x       y       z     vdW  Elec       q    Type
REMARK                         _______ _______ _______ _____ _____    ______ ____
ROOT
ATOM      1  O   HOH     1      26.038  29.534   8.207  0.00  0.00    +0.000 OA
ENDROOT
TORSDOF 0
REMARK  Name = ../refined-set-2016/1sdv/1sdv_pocket.pdb
REMARK  234 active torsions:
REMARK  status: ('A' for Active; 'I' for Inactive)
REMARK    1  A    between atoms: _1  and  _3
REMARK    2  A    between atoms: _3  and  _4
REMARK    3  A    between atoms: _3  and  _6
REMARK    4  A    between atoms: _6  and  _7
REMARK    5  A    between atoms: _7  and  _8
REMARK    6  A    between atoms: _8  and  _9
REMARK    7  A    between atoms: _18  and  _20
REMARK    8  A    between atoms: _20  and  _21
REMARK    9  A    between atoms: _20  and  _23
REMARK   10  A    between atoms: _23  and  _24
REMARK   11  A    between atoms: _27  and  _29
REMARK   12  A    between atoms: _29  and  _30
REMARK   13  A    between atoms: _29  and  _32
REMARK   14  A    between atoms: _32  and  _33
REMARK   15  A    between atoms: _36  and  _38
REMARK   16  A    between atoms: _38  and  _39
REMARK   17  A    between atoms: _38  and  _41
REMARK   18  A    between atoms: _41  and  _42
REMARK   19  A    between atoms: _45  and  _47
REMARK   20  A    between atoms: _47  and  _48
REMARK   21  A    between atoms: _47  and  _50
REMARK   22  A    between atoms: _50  and  _51
REMARK   23  A    between atoms: _54  and  _56
REMARK   24  A    between atoms: _56  and  _57
REMARK   25  A    between atoms: _56  and  _59
REMARK   26  A    between atoms: _59  and  _60
REMARK   27  A    between atoms: _63  and  _65
REMARK   28  A    between atoms: _65  and  _66
REMARK   29  A    between atoms: _68  and  _70
REMARK   30  A    between atoms: _70  and  _71
REMARK   31  A    between atoms: _74  and  _76
REMARK   32  A    between atoms: _76  and  _77
REMARK   33  A    between atoms: _76  and  _79
REMARK   34  A    between atoms: _79  and  _80
REMARK   35  A    between atoms: _83  and  _85
REMARK   36  A    between atoms: _85  and  _86
REMARK   37  A    between atoms: _85  and  _88
REMARK   38  A    between atoms: _88  and  _89
REMARK   39  A    between atoms: _92  and  _94
REMARK   40  A    between atoms: _94  and  _95
REMARK   41  A    between atoms: _94  and  _97
REMARK   42  A    between atoms: _97  and  _98
REMARK   43  A    between atoms: _101  and  _103
REMARK   44  A    between atoms: _103  and  _104
REMARK   45  A    between atoms: _103  and  _106
REMARK   46  A    between atoms: _109  and  _111
REMARK   47  A    between atoms: _111  and  _112
REMARK   48  A    between atoms: _111  and  _114
REMARK   49  A    between atoms: _114  and  _115
REMARK   50  A    between atoms: _115  and  _116
REMARK   51  A    between atoms: _116  and  _117
REMARK   52  A    between atoms: _117  and  _118
REMARK   53  A    between atoms: _122  and  _124
REMARK   54  A    between atoms: _124  and  _125
REMARK   55  A    between atoms: _124  and  _127
REMARK   56  A    between atoms: _127  and  _128
REMARK   57  A    between atoms: _128  and  _129
REMARK   58  A    between atoms: _131  and  _133
REMARK   59  A    between atoms: _133  and  _134
REMARK   60  A    between atoms: _133  and  _136
REMARK   61  A    between atoms: _136  and  _137
REMARK   62  A    between atoms: _140  and  _142
REMARK   63  A    between atoms: _142  and  _143
REMARK   64  A    between atoms: _145  and  _147
REMARK   65  A    between atoms: _147  and  _148
REMARK   66  A    between atoms: _150  and  _152
REMARK   67  A    between atoms: _152  and  _153
REMARK   68  A    between atoms: _152  and  _155
REMARK   69  A    between atoms: _155  and  _156
REMARK   70  A    between atoms: _159  and  _161
REMARK   71  A    between atoms: _161  and  _162
REMARK   72  A    between atoms: _164  and  _166
REMARK   73  A    between atoms: _166  and  _167
REMARK   74  A    between atoms: _169  and  _171
REMARK   75  A    between atoms: _171  and  _172
REMARK   76  A    between atoms: _171  and  _174
REMARK   77  A    between atoms: _174  and  _175
REMARK   78  A    between atoms: _181  and  _183
REMARK   79  A    between atoms: _183  and  _184
REMARK   80  A    between atoms: _183  and  _186
REMARK   81  A    between atoms: _186  and  _187
REMARK   82  A    between atoms: _190  and  _192
REMARK   83  A    between atoms: _192  and  _193
REMARK   84  A    between atoms: _192  and  _195
REMARK   85  A    between atoms: _198  and  _200
REMARK   86  A    between atoms: _200  and  _201
REMARK   87  A    between atoms: _200  and  _203
REMARK   88  A    between atoms: _203  and  _204
REMARK   89  A    between atoms: _207  and  _209
REMARK   90  A    between atoms: _209  and  _210
REMARK   91  A    between atoms: _209  and  _212
REMARK   92  A    between atoms: _212  and  _213
REMARK   93  A    between atoms: _217  and  _218
REMARK   94  A    between atoms: _223  and  _225
REMARK   95  A    between atoms: _225  and  _226
REMARK   96  A    between atoms: _229  and  _231
REMARK   97  A    between atoms: _231  and  _232
REMARK   98  A    between atoms: _231  and  _234
REMARK   99  A    between atoms: _234  and  _235
REMARK  100  A    between atoms: _240  and  _242
REMARK  101  A    between atoms: _242  and  _243
REMARK  102  A    between atoms: _242  and  _245
REMARK  103  A    between atoms: _245  and  _246
REMARK  104  A    between atoms: _249  and  _251
REMARK  105  A    between atoms: _251  and  _252
REMARK  106  A    between atoms: _251  and  _254
REMARK  107  A    between atoms: _254  and  _255
REMARK  108  A    between atoms: _258  and  _260
REMARK  109  A    between atoms: _260  and  _261
REMARK  110  A    between atoms: _263  and  _265
REMARK  111  A    between atoms: _265  and  _266
REMARK  112  A    between atoms: _265  and  _268
REMARK  113  A    between atoms: _268  and  _269
REMARK  114  A    between atoms: _269  and  _270
REMARK  115  A    between atoms: _270  and  _271
REMARK  116  A    between atoms: _280  and  _282
REMARK  117  A    between atoms: _282  and  _283
REMARK  118  A    between atoms: _282  and  _285
REMARK  119  A    between atoms: _285  and  _286
REMARK  120  A    between atoms: _286  and  _287
REMARK  121  A    between atoms: _287  and  _288
REMARK  122  A    between atoms: _297  and  _299
REMARK  123  A    between atoms: _299  and  _300
REMARK  124  A    between atoms: _299  and  _302
REMARK  125  A    between atoms: _302  and  _303
REMARK  126  A    between atoms: _306  and  _308
REMARK  127  A    between atoms: _308  and  _309
REMARK  128  A    between atoms: _308  and  _311
REMARK  129  A    between atoms: _311  and  _312
REMARK  130  A    between atoms: _315  and  _317
REMARK  131  A    between atoms: _317  and  _318
REMARK  132  A    between atoms: _317  and  _320
REMARK  133  A    between atoms: _320  and  _321
REMARK  134  A    between atoms: _324  and  _326
REMARK  135  A    between atoms: _326  and  _327
REMARK  136  A    between atoms: _326  and  _329
REMARK  137  A    between atoms: _329  and  _330
REMARK  138  A    between atoms: _333  and  _335
REMARK  139  A    between atoms: _335  and  _336
REMARK  140  A    between atoms: _338  and  _340
REMARK  141  A    between atoms: _340  and  _341
REMARK  142  A    between atoms: _344  and  _346
REMARK  143  A    between atoms: _346  and  _347
REMARK  144  A    between atoms: _346  and  _349
REMARK  145  A    between atoms: _349  and  _350
REMARK  146  A    between atoms: _353  and  _355
REMARK  147  A    between atoms: _355  and  _356
REMARK  148  A    between atoms: _355  and  _358
REMARK  149  A    between atoms: _358  and  _359
REMARK  150  A    between atoms: _362  and  _364
REMARK  151  A    between atoms: _364  and  _365
REMARK  152  A    between atoms: _364  and  _367
REMARK  153  A    between atoms: _367  and  _368
REMARK  154  A    between atoms: _371  and  _373
REMARK  155  A    between atoms: _373  and  _374
REMARK  156  A    between atoms: _373  and  _376
REMARK  157  A    between atoms: _379  and  _381
REMARK  158  A    between atoms: _381  and  _382
REMARK  159  A    between atoms: _381  and  _384
REMARK  160  A    between atoms: _384  and  _385
REMARK  161  A    between atoms: _388  and  _390
REMARK  162  A    between atoms: _390  and  _391
REMARK  163  A    between atoms: _390  and  _393
REMARK  164  A    between atoms: _393  and  _394
REMARK  165  A    between atoms: _394  and  _395
REMARK  166  A    between atoms: _395  and  _396
REMARK  167  A    between atoms: _396  and  _397
REMARK  168  A    between atoms: _401  and  _403
REMARK  169  A    between atoms: _403  and  _404
REMARK  170  A    between atoms: _403  and  _406
REMARK  171  A    between atoms: _406  and  _407
REMARK  172  A    between atoms: _407  and  _408
REMARK  173  A    between atoms: _410  and  _412
REMARK  174  A    between atoms: _412  and  _413
REMARK  175  A    between atoms: _412  and  _415
REMARK  176  A    between atoms: _415  and  _416
REMARK  177  A    between atoms: _419  and  _421
REMARK  178  A    between atoms: _421  and  _422
REMARK  179  A    between atoms: _424  and  _426
REMARK  180  A    between atoms: _426  and  _427
REMARK  181  A    between atoms: _429  and  _431
REMARK  182  A    between atoms: _431  and  _432
REMARK  183  A    between atoms: _431  and  _434
REMARK  184  A    between atoms: _434  and  _435
REMARK  185  A    between atoms: _438  and  _440
REMARK  186  A    between atoms: _440  and  _441
REMARK  187  A    between atoms: _443  and  _445
REMARK  188  A    between atoms: _445  and  _446
REMARK  189  A    between atoms: _448  and  _450
REMARK  190  A    between atoms: _450  and  _451
REMARK  191  A    between atoms: _450  and  _453
REMARK  192  A    between atoms: _453  and  _454
REMARK  193  A    between atoms: _460  and  _462
REMARK  194  A    between atoms: _462  and  _463
REMARK  195  A    between atoms: _462  and  _465
REMARK  196  A    between atoms: _465  and  _466
REMARK  197  A    between atoms: _469  and  _471
REMARK  198  A    between atoms: _471  and  _472
REMARK  199  A    between atoms: _471  and  _474
REMARK  200  A    between atoms: _477  and  _479
REMARK  201  A    between atoms: _479  and  _480
REMARK  202  A    between atoms: _479  and  _482
REMARK  203  A    between atoms: _482  and  _483
REMARK  204  A    between atoms: _486  and  _488
REMARK  205  A    between atoms: _488  and  _489
REMARK  206  A    between atoms: _488  and  _491
REMARK  207  A    between atoms: _491  and  _492
REMARK  208  A    between atoms: _496  and  _497
REMARK  209  A    between atoms: _502  and  _504
REMARK  210  A    between atoms: _504  and  _505
REMARK  211  A    between atoms: _508  and  _510
REMARK  212  A    between atoms: _510  and  _511
REMARK  213  A    between atoms: _510  and  _513
REMARK  214  A    between atoms: _513  and  _514
REMARK  215  A    between atoms: _519  and  _521
REMARK  216  A    between atoms: _521  and  _522
REMARK  217  A    between atoms: _521  and  _524
REMARK  218  A    between atoms: _524  and  _525
REMARK  219  A    between atoms: _528  and  _530
REMARK  220  A    between atoms: _530  and  _531
REMARK  221  A    between atoms: _530  and  _533
REMARK  222  A    between atoms: _533  and  _534
REMARK  223  A    between atoms: _537  and  _539
REMARK  224  A    between atoms: _539  and  _540
REMARK  225  A    between atoms: _542  and  _544
REMARK  226  A    between atoms: _544  and  _545
REMARK  227  A    between atoms: _544  and  _547
REMARK  228  A    between atoms: _547  and  _548
REMARK  229  A    between atoms: _548  and  _549
REMARK  230  A    between atoms: _549  and  _550
REMARK  231  A    between atoms: _559  and  _561
REMARK  232  A    between atoms: _561  and  _562
REMARK  233  A    between atoms: _561  and  _564
REMARK  234  A    between atoms: _564  and  _565
REMARK                            x       y       z     vdW  Elec       q    Type
REMARK                         _______ _______ _______ _____ _____    ______ ____
ROOT
ATOM      1  O   HOH     1      28.624  25.195   8.130  0.00  0.00    +0.000 OA
ENDROOT
TORSDOF 0
REMARK  Name = ../refined-set-2016/1sdv/1sdv_pocket.pdb
REMARK  234 active torsions:
REMARK  status: ('A' for Active; 'I' for Inactive)
REMARK    1  A    between atoms: _1  and  _3
REMARK    2  A    between atoms: _3  and  _4
REMARK    3  A    between atoms: _3  and  _6
REMARK    4  A    between atoms: _6  and  _7
REMARK    5  A    between atoms: _7  and  _8
REMARK    6  A    between atoms: _8  and  _9
REMARK    7  A    between atoms: _18  and  _20
REMARK    8  A    between atoms: _20  and  _21
REMARK    9  A    between atoms: _20  and  _23
REMARK   10  A    between atoms: _23  and  _24
REMARK   11  A    between atoms: _27  and  _29
REMARK   12  A    between atoms: _29  and  _30
REMARK   13  A    between atoms: _29  and  _32
REMARK   14  A    between atoms: _32  and  _33
REMARK   15  A    between atoms: _36  and  _38
REMARK   16  A    between atoms: _38  and  _39
REMARK   17  A    between atoms: _38  and  _41
REMARK   18  A    between atoms: _41  and  _42
REMARK   19  A    between atoms: _45  and  _47
REMARK   20  A    between atoms: _47  and  _48
REMARK   21  A    between atoms: _47  and  _50
REMARK   22  A    between atoms: _50  and  _51
REMARK   23  A    between atoms: _54  and  _56
REMARK   24  A    between atoms: _56  and  _57
REMARK   25  A    between atoms: _56  and  _59
REMARK   26  A    between atoms: _59  and  _60
REMARK   27  A    between atoms: _63  and  _65
REMARK   28  A    between atoms: _65  and  _66
REMARK   29  A    between atoms: _68  and  _70
REMARK   30  A    between atoms: _70  and  _71
REMARK   31  A    between atoms: _74  and  _76
REMARK   32  A    between atoms: _76  and  _77
REMARK   33  A    between atoms: _76  and  _79
REMARK   34  A    between atoms: _79  and  _80
REMARK   35  A    between atoms: _83  and  _85
REMARK   36  A    between atoms: _85  and  _86
REMARK   37  A    between atoms: _85  and  _88
REMARK   38  A    between atoms: _88  and  _89
REMARK   39  A    between atoms: _92  and  _94
REMARK   40  A    between atoms: _94  and  _95
REMARK   41  A    between atoms: _94  and  _97
REMARK   42  A    between atoms: _97  and  _98
REMARK   43  A    between atoms: _101  and  _103
REMARK   44  A    between atoms: _103  and  _104
REMARK   45  A    between atoms: _103  and  _106
REMARK   46  A    between atoms: _109  and  _111
REMARK   47  A    between atoms: _111  and  _112
REMARK   48  A    between atoms: _111  and  _114
REMARK   49  A    between atoms: _114  and  _115
REMARK   50  A    between atoms: _115  and  _116
REMARK   51  A    between atoms: _116  and  _117
REMARK   52  A    between atoms: _117  and  _118
REMARK   53  A    between atoms: _122  and  _124
REMARK   54  A    between atoms: _124  and  _125
REMARK   55  A    between atoms: _124  and  _127
REMARK   56  A    between atoms: _127  and  _128
REMARK   57  A    between atoms: _128  and  _129
REMARK   58  A    between atoms: _131  and  _133
REMARK   59  A    between atoms: _133  and  _134
REMARK   60  A    between atoms: _133  and  _136
REMARK   61  A    between atoms: _136  and  _137
REMARK   62  A    between atoms: _140  and  _142
REMARK   63  A    between atoms: _142  and  _143
REMARK   64  A    between atoms: _145  and  _147
REMARK   65  A    between atoms: _147  and  _148
REMARK   66  A    between atoms: _150  and  _152
REMARK   67  A    between atoms: _152  and  _153
REMARK   68  A    between atoms: _152  and  _155
REMARK   69  A    between atoms: _155  and  _156
REMARK   70  A    between atoms: _159  and  _161
REMARK   71  A    between atoms: _161  and  _162
REMARK   72  A    between atoms: _164  and  _166
REMARK   73  A    between atoms: _166  and  _167
REMARK   74  A    between atoms: _169  and  _171
REMARK   75  A    between atoms: _171  and  _172
REMARK   76  A    between atoms: _171  and  _174
REMARK   77  A    between atoms: _174  and  _175
REMARK   78  A    between atoms: _181  and  _183
REMARK   79  A    between atoms: _183  and  _184
REMARK   80  A    between atoms: _183  and  _186
REMARK   81  A    between atoms: _186  and  _187
REMARK   82  A    between atoms: _190  and  _192
REMARK   83  A    between atoms: _192  and  _193
REMARK   84  A    between atoms: _192  and  _195
REMARK   85  A    between atoms: _198  and  _200
REMARK   86  A    between atoms: _200  and  _201
REMARK   87  A    between atoms: _200  and  _203
REMARK   88  A    between atoms: _203  and  _204
REMARK   89  A    between atoms: _207  and  _209
REMARK   90  A    between atoms: _209  and  _210
REMARK   91  A    between atoms: _209  and  _212
REMARK   92  A    between atoms: _212  and  _213
REMARK   93  A    between atoms: _217  and  _218
REMARK   94  A    between atoms: _223  and  _225
REMARK   95  A    between atoms: _225  and  _226
REMARK   96  A    between atoms: _229  and  _231
REMARK   97  A    between atoms: _231  and  _232
REMARK   98  A    between atoms: _231  and  _234
REMARK   99  A    between atoms: _234  and  _235
REMARK  100  A    between atoms: _240  and  _242
REMARK  101  A    between atoms: _242  and  _243
REMARK  102  A    between atoms: _242  and  _245
REMARK  103  A    between atoms: _245  and  _246
REMARK  104  A    between atoms: _249  and  _251
REMARK  105  A    between atoms: _251  and  _252
REMARK  106  A    between atoms: _251  and  _254
REMARK  107  A    between atoms: _254  and  _255
REMARK  108  A    between atoms: _258  and  _260
REMARK  109  A    between atoms: _260  and  _261
REMARK  110  A    between atoms: _263  and  _265
REMARK  111  A    between atoms: _265  and  _266
REMARK  112  A    between atoms: _265  and  _268
REMARK  113  A    between atoms: _268  and  _269
REMARK  114  A    between atoms: _269  and  _270
REMARK  115  A    between atoms: _270  and  _271
REMARK  116  A    between atoms: _280  and  _282
REMARK  117  A    between atoms: _282  and  _283
REMARK  118  A    between atoms: _282  and  _285
REMARK  119  A    between atoms: _285  and  _286
REMARK  120  A    between atoms: _286  and  _287
REMARK  121  A    between atoms: _287  and  _288
REMARK  122  A    between atoms: _297  and  _299
REMARK  123  A    between atoms: _299  and  _300
REMARK  124  A    between atoms: _299  and  _302
REMARK  125  A    between atoms: _302  and  _303
REMARK  126  A    between atoms: _306  and  _308
REMARK  127  A    between atoms: _308  and  _309
REMARK  128  A    between atoms: _308  and  _311
REMARK  129  A    between atoms: _311  and  _312
REMARK  130  A    between atoms: _315  and  _317
REMARK  131  A    between atoms: _317  and  _318
REMARK  132  A    between atoms: _317  and  _320
REMARK  133  A    between atoms: _320  and  _321
REMARK  134  A    between atoms: _324  and  _326
REMARK  135  A    between atoms: _326  and  _327
REMARK  136  A    between atoms: _326  and  _329
REMARK  137  A    between atoms: _329  and  _330
REMARK  138  A    between atoms: _333  and  _335
REMARK  139  A    between atoms: _335  and  _336
REMARK  140  A    between atoms: _338  and  _340
REMARK  141  A    between atoms: _340  and  _341
REMARK  142  A    between atoms: _344  and  _346
REMARK  143  A    between atoms: _346  and  _347
REMARK  144  A    between atoms: _346  and  _349
REMARK  145  A    between atoms: _349  and  _350
REMARK  146  A    between atoms: _353  and  _355
REMARK  147  A    between atoms: _355  and  _356
REMARK  148  A    between atoms: _355  and  _358
REMARK  149  A    between atoms: _358  and  _359
REMARK  150  A    between atoms: _362  and  _364
REMARK  151  A    between atoms: _364  and  _365
REMARK  152  A    between atoms: _364  and  _367
REMARK  153  A    between atoms: _367  and  _368
REMARK  154  A    between atoms: _371  and  _373
REMARK  155  A    between atoms: _373  and  _374
REMARK  156  A    between atoms: _373  and  _376
REMARK  157  A    between atoms: _379  and  _381
REMARK  158  A    between atoms: _381  and  _382
REMARK  159  A    between atoms: _381  and  _384
REMARK  160  A    between atoms: _384  and  _385
REMARK  161  A    between atoms: _388  and  _390
REMARK  162  A    between atoms: _390  and  _391
REMARK  163  A    between atoms: _390  and  _393
REMARK  164  A    between atoms: _393  and  _394
REMARK  165  A    between atoms: _394  and  _395
REMARK  166  A    between atoms: _395  and  _396
REMARK  167  A    between atoms: _396  and  _397
REMARK  168  A    between atoms: _401  and  _403
REMARK  169  A    between atoms: _403  and  _404
REMARK  170  A    between atoms: _403  and  _406
REMARK  171  A    between atoms: _406  and  _407
REMARK  172  A    between atoms: _407  and  _408
REMARK  173  A    between atoms: _410  and  _412
REMARK  174  A    between atoms: _412  and  _413
REMARK  175  A    between atoms: _412  and  _415
REMARK  176  A    between atoms: _415  and  _416
REMARK  177  A    between atoms: _419  and  _421
REMARK  178  A    between atoms: _421  and  _422
REMARK  179  A    between atoms: _424  and  _426
REMARK  180  A    between atoms: _426  and  _427
REMARK  181  A    between atoms: _429  and  _431
REMARK  182  A    between atoms: _431  and  _432
REMARK  183  A    between atoms: _431  and  _434
REMARK  184  A    between atoms: _434  and  _435
REMARK  185  A    between atoms: _438  and  _440
REMARK  186  A    between atoms: _440  and  _441
REMARK  187  A    between atoms: _443  and  _445
REMARK  188  A    between atoms: _445  and  _446
REMARK  189  A    between atoms: _448  and  _450
REMARK  190  A    between atoms: _450  and  _451
REMARK  191  A    between atoms: _450  and  _453
REMARK  192  A    between atoms: _453  and  _454
REMARK  193  A    between atoms: _460  and  _462
REMARK  194  A    between atoms: _462  and  _463
REMARK  195  A    between atoms: _462  and  _465
REMARK  196  A    between atoms: _465  and  _466
REMARK  197  A    between atoms: _469  and  _471
REMARK  198  A    between atoms: _471  and  _472
REMARK  199  A    between atoms: _471  and  _474
REMARK  200  A    between atoms: _477  and  _479
REMARK  201  A    between atoms: _479  and  _480
REMARK  202  A    between atoms: _479  and  _482
REMARK  203  A    between atoms: _482  and  _483
REMARK  204  A    between atoms: _486  and  _488
REMARK  205  A    between atoms: _488  and  _489
REMARK  206  A    between atoms: _488  and  _491
REMARK  207  A    between atoms: _491  and  _492
REMARK  208  A    between atoms: _496  and  _497
REMARK  209  A    between atoms: _502  and  _504
REMARK  210  A    between atoms: _504  and  _505
REMARK  211  A    between atoms: _508  and  _510
REMARK  212  A    between atoms: _510  and  _511
REMARK  213  A    between atoms: _510  and  _513
REMARK  214  A    between atoms: _513  and  _514
REMARK  215  A    between atoms: _519  and  _521
REMARK  216  A    between atoms: _521  and  _522
REMARK  217  A    between atoms: _521  and  _524
REMARK  218  A    between atoms: _524  and  _525
REMARK  219  A    between atoms: _528  and  _530
REMARK  220  A    between atoms: _530  and  _531
REMARK  221  A    between atoms: _530  and  _533
REMARK  222  A    between atoms: _533  and  _534
REMARK  223  A    between atoms: _537  and  _539
REMARK  224  A    between atoms: _539  and  _540
REMARK  225  A    between atoms: _542  and  _544
REMARK  226  A    between atoms: _544  and  _545
REMARK  227  A    between atoms: _544  and  _547
REMARK  228  A    between atoms: _547  and  _548
REMARK  229  A    between atoms: _548  and  _549
REMARK  230  A    between atoms: _549  and  _550
REMARK  231  A    between atoms: _559  and  _561
REMARK  232  A    between atoms: _561  and  _562
REMARK  233  A    between atoms: _561  and  _564
REMARK  234  A    between atoms: _564  and  _565
REMARK                            x       y       z     vdW  Elec       q    Type
REMARK                         _______ _______ _______ _____ _____    ______ ____
ROOT
ATOM      1  O   HOH     1      21.932   6.028  11.825  0.00  0.00    +0.000 OA
ENDROOT
TORSDOF 0
REMARK  Name = ../refined-set-2016/1sdv/1sdv_pocket.pdb
REMARK  234 active torsions:
REMARK  status: ('A' for Active; 'I' for Inactive)
REMARK    1  A    between atoms: _1  and  _3
REMARK    2  A    between atoms: _3  and  _4
REMARK    3  A    between atoms: _3  and  _6
REMARK    4  A    between atoms: _6  and  _7
REMARK    5  A    between atoms: _7  and  _8
REMARK    6  A    between atoms: _8  and  _9
REMARK    7  A    between atoms: _18  and  _20
REMARK    8  A    between atoms: _20  and  _21
REMARK    9  A    between atoms: _20  and  _23
REMARK   10  A    between atoms: _23  and  _24
REMARK   11  A    between atoms: _27  and  _29
REMARK   12  A    between atoms: _29  and  _30
REMARK   13  A    between atoms: _29  and  _32
REMARK   14  A    between atoms: _32  and  _33
REMARK   15  A    between atoms: _36  and  _38
REMARK   16  A    between atoms: _38  and  _39
REMARK   17  A    between atoms: _38  and  _41
REMARK   18  A    between atoms: _41  and  _42
REMARK   19  A    between atoms: _45  and  _47
REMARK   20  A    between atoms: _47  and  _48
REMARK   21  A    between atoms: _47  and  _50
REMARK   22  A    between atoms: _50  and  _51
REMARK   23  A    between atoms: _54  and  _56
REMARK   24  A    between atoms: _56  and  _57
REMARK   25  A    between atoms: _56  and  _59
REMARK   26  A    between atoms: _59  and  _60
REMARK   27  A    between atoms: _63  and  _65
REMARK   28  A    between atoms: _65  and  _66
REMARK   29  A    between atoms: _68  and  _70
REMARK   30  A    between atoms: _70  and  _71
REMARK   31  A    between atoms: _74  and  _76
REMARK   32  A    between atoms: _76  and  _77
REMARK   33  A    between atoms: _76  and  _79
REMARK   34  A    between atoms: _79  and  _80
REMARK   35  A    between atoms: _83  and  _85
REMARK   36  A    between atoms: _85  and  _86
REMARK   37  A    between atoms: _85  and  _88
REMARK   38  A    between atoms: _88  and  _89
REMARK   39  A    between atoms: _92  and  _94
REMARK   40  A    between atoms: _94  and  _95
REMARK   41  A    between atoms: _94  and  _97
REMARK   42  A    between atoms: _97  and  _98
REMARK   43  A    between atoms: _101  and  _103
REMARK   44  A    between atoms: _103  and  _104
REMARK   45  A    between atoms: _103  and  _106
REMARK   46  A    between atoms: _109  and  _111
REMARK   47  A    between atoms: _111  and  _112
REMARK   48  A    between atoms: _111  and  _114
REMARK   49  A    between atoms: _114  and  _115
REMARK   50  A    between atoms: _115  and  _116
REMARK   51  A    between atoms: _116  and  _117
REMARK   52  A    between atoms: _117  and  _118
REMARK   53  A    between atoms: _122  and  _124
REMARK   54  A    between atoms: _124  and  _125
REMARK   55  A    between atoms: _124  and  _127
REMARK   56  A    between atoms: _127  and  _128
REMARK   57  A    between atoms: _128  and  _129
REMARK   58  A    between atoms: _131  and  _133
REMARK   59  A    between atoms: _133  and  _134
REMARK   60  A    between atoms: _133  and  _136
REMARK   61  A    between atoms: _136  and  _137
REMARK   62  A    between atoms: _140  and  _142
REMARK   63  A    between atoms: _142  and  _143
REMARK   64  A    between atoms: _145  and  _147
REMARK   65  A    between atoms: _147  and  _148
REMARK   66  A    between atoms: _150  and  _152
REMARK   67  A    between atoms: _152  and  _153
REMARK   68  A    between atoms: _152  and  _155
REMARK   69  A    between atoms: _155  and  _156
REMARK   70  A    between atoms: _159  and  _161
REMARK   71  A    between atoms: _161  and  _162
REMARK   72  A    between atoms: _164  and  _166
REMARK   73  A    between atoms: _166  and  _167
REMARK   74  A    between atoms: _169  and  _171
REMARK   75  A    between atoms: _171  and  _172
REMARK   76  A    between atoms: _171  and  _174
REMARK   77  A    between atoms: _174  and  _175
REMARK   78  A    between atoms: _181  and  _183
REMARK   79  A    between atoms: _183  and  _184
REMARK   80  A    between atoms: _183  and  _186
REMARK   81  A    between atoms: _186  and  _187
REMARK   82  A    between atoms: _190  and  _192
REMARK   83  A    between atoms: _192  and  _193
REMARK   84  A    between atoms: _192  and  _195
REMARK   85  A    between atoms: _198  and  _200
REMARK   86  A    between atoms: _200  and  _201
REMARK   87  A    between atoms: _200  and  _203
REMARK   88  A    between atoms: _203  and  _204
REMARK   89  A    between atoms: _207  and  _209
REMARK   90  A    between atoms: _209  and  _210
REMARK   91  A    between atoms: _209  and  _212
REMARK   92  A    between atoms: _212  and  _213
REMARK   93  A    between atoms: _217  and  _218
REMARK   94  A    between atoms: _223  and  _225
REMARK   95  A    between atoms: _225  and  _226
REMARK   96  A    between atoms: _229  and  _231
REMARK   97  A    between atoms: _231  and  _232
REMARK   98  A    between atoms: _231  and  _234
REMARK   99  A    between atoms: _234  and  _235
REMARK  100  A    between atoms: _240  and  _242
REMARK  101  A    between atoms: _242  and  _243
REMARK  102  A    between atoms: _242  and  _245
REMARK  103  A    between atoms: _245  and  _246
REMARK  104  A    between atoms: _249  and  _251
REMARK  105  A    between atoms: _251  and  _252
REMARK  106  A    between atoms: _251  and  _254
REMARK  107  A    between atoms: _254  and  _255
REMARK  108  A    between atoms: _258  and  _260
REMARK  109  A    between atoms: _260  and  _261
REMARK  110  A    between atoms: _263  and  _265
REMARK  111  A    between atoms: _265  and  _266
REMARK  112  A    between atoms: _265  and  _268
REMARK  113  A    between atoms: _268  and  _269
REMARK  114  A    between atoms: _269  and  _270
REMARK  115  A    between atoms: _270  and  _271
REMARK  116  A    between atoms: _280  and  _282
REMARK  117  A    between atoms: _282  and  _283
REMARK  118  A    between atoms: _282  and  _285
REMARK  119  A    between atoms: _285  and  _286
REMARK  120  A    between atoms: _286  and  _287
REMARK  121  A    between atoms: _287  and  _288
REMARK  122  A    between atoms: _297  and  _299
REMARK  123  A    between atoms: _299  and  _300
REMARK  124  A    between atoms: _299  and  _302
REMARK  125  A    between atoms: _302  and  _303
REMARK  126  A    between atoms: _306  and  _308
REMARK  127  A    between atoms: _308  and  _309
REMARK  128  A    between atoms: _308  and  _311
REMARK  129  A    between atoms: _311  and  _312
REMARK  130  A    between atoms: _315  and  _317
REMARK  131  A    between atoms: _317  and  _318
REMARK  132  A    between atoms: _317  and  _320
REMARK  133  A    between atoms: _320  and  _321
REMARK  134  A    between atoms: _324  and  _326
REMARK  135  A    between atoms: _326  and  _327
REMARK  136  A    between atoms: _326  and  _329
REMARK  137  A    between atoms: _329  and  _330
REMARK  138  A    between atoms: _333  and  _335
REMARK  139  A    between atoms: _335  and  _336
REMARK  140  A    between atoms: _338  and  _340
REMARK  141  A    between atoms: _340  and  _341
REMARK  142  A    between atoms: _344  and  _346
REMARK  143  A    between atoms: _346  and  _347
REMARK  144  A    between atoms: _346  and  _349
REMARK  145  A    between atoms: _349  and  _350
REMARK  146  A    between atoms: _353  and  _355
REMARK  147  A    between atoms: _355  and  _356
REMARK  148  A    between atoms: _355  and  _358
REMARK  149  A    between atoms: _358  and  _359
REMARK  150  A    between atoms: _362  and  _364
REMARK  151  A    between atoms: _364  and  _365
REMARK  152  A    between atoms: _364  and  _367
REMARK  153  A    between atoms: _367  and  _368
REMARK  154  A    between atoms: _371  and  _373
REMARK  155  A    between atoms: _373  and  _374
REMARK  156  A    between atoms: _373  and  _376
REMARK  157  A    between atoms: _379  and  _381
REMARK  158  A    between atoms: _381  and  _382
REMARK  159  A    between atoms: _381  and  _384
REMARK  160  A    between atoms: _384  and  _385
REMARK  161  A    between atoms: _388  and  _390
REMARK  162  A    between atoms: _390  and  _391
REMARK  163  A    between atoms: _390  and  _393
REMARK  164  A    between atoms: _393  and  _394
REMARK  165  A    between atoms: _394  and  _395
REMARK  166  A    between atoms: _395  and  _396
REMARK  167  A    between atoms: _396  and  _397
REMARK  168  A    between atoms: _401  and  _403
REMARK  169  A    between atoms: _403  and  _404
REMARK  170  A    between atoms: _403  and  _406
REMARK  171  A    between atoms: _406  and  _407
REMARK  172  A    between atoms: _407  and  _408
REMARK  173  A    between atoms: _410  and  _412
REMARK  174  A    between atoms: _412  and  _413
REMARK  175  A    between atoms: _412  and  _415
REMARK  176  A    between atoms: _415  and  _416
REMARK  177  A    between atoms: _419  and  _421
REMARK  178  A    between atoms: _421  and  _422
REMARK  179  A    between atoms: _424  and  _426
REMARK  180  A    between atoms: _426  and  _427
REMARK  181  A    between atoms: _429  and  _431
REMARK  182  A    between atoms: _431  and  _432
REMARK  183  A    between atoms: _431  and  _434
REMARK  184  A    between atoms: _434  and  _435
REMARK  185  A    between atoms: _438  and  _440
REMARK  186  A    between atoms: _440  and  _441
REMARK  187  A    between atoms: _443  and  _445
REMARK  188  A    between atoms: _445  and  _446
REMARK  189  A    between atoms: _448  and  _450
REMARK  190  A    between atoms: _450  and  _451
REMARK  191  A    between atoms: _450  and  _453
REMARK  192  A    between atoms: _453  and  _454
REMARK  193  A    between atoms: _460  and  _462
REMARK  194  A    between atoms: _462  and  _463
REMARK  195  A    between atoms: _462  and  _465
REMARK  196  A    between atoms: _465  and  _466
REMARK  197  A    between atoms: _469  and  _471
REMARK  198  A    between atoms: _471  and  _472
REMARK  199  A    between atoms: _471  and  _474
REMARK  200  A    between atoms: _477  and  _479
REMARK  201  A    between atoms: _479  and  _480
REMARK  202  A    between atoms: _479  and  _482
REMARK  203  A    between atoms: _482  and  _483
REMARK  204  A    between atoms: _486  and  _488
REMARK  205  A    between atoms: _488  and  _489
REMARK  206  A    between atoms: _488  and  _491
REMARK  207  A    between atoms: _491  and  _492
REMARK  208  A    between atoms: _496  and  _497
REMARK  209  A    between atoms: _502  and  _504
REMARK  210  A    between atoms: _504  and  _505
REMARK  211  A    between atoms: _508  and  _510
REMARK  212  A    between atoms: _510  and  _511
REMARK  213  A    between atoms: _510  and  _513
REMARK  214  A    between atoms: _513  and  _514
REMARK  215  A    between atoms: _519  and  _521
REMARK  216  A    between atoms: _521  and  _522
REMARK  217  A    between atoms: _521  and  _524
REMARK  218  A    between atoms: _524  and  _525
REMARK  219  A    between atoms: _528  and  _530
REMARK  220  A    between atoms: _530  and  _531
REMARK  221  A    between atoms: _530  and  _533
REMARK  222  A    between atoms: _533  and  _534
REMARK  223  A    between atoms: _537  and  _539
REMARK  224  A    between atoms: _539  and  _540
REMARK  225  A    between atoms: _542  and  _544
REMARK  226  A    between atoms: _544  and  _545
REMARK  227  A    between atoms: _544  and  _547
REMARK  228  A    between atoms: _547  and  _548
REMARK  229  A    between atoms: _548  and  _549
REMARK  230  A    between atoms: _549  and  _550
REMARK  231  A    between atoms: _559  and  _561
REMARK  232  A    between atoms: _561  and  _562
REMARK  233  A    between atoms: _561  and  _564
REMARK  234  A    between atoms: _564  and  _565
REMARK                            x       y       z     vdW  Elec       q    Type
REMARK                         _______ _______ _______ _____ _____    ______ ____
ROOT
ATOM      1  O   HOH     1      34.152  22.879  10.840  0.00  0.00    +0.000 OA
ENDROOT
TORSDOF 0
REMARK  Name = ../refined-set-2016/1sdv/1sdv_pocket.pdb
REMARK  234 active torsions:
REMARK  status: ('A' for Active; 'I' for Inactive)
REMARK    1  A    between atoms: _1  and  _3
REMARK    2  A    between atoms: _3  and  _4
REMARK    3  A    between atoms: _3  and  _6
REMARK    4  A    between atoms: _6  and  _7
REMARK    5  A    between atoms: _7  and  _8
REMARK    6  A    between atoms: _8  and  _9
REMARK    7  A    between atoms: _18  and  _20
REMARK    8  A    between atoms: _20  and  _21
REMARK    9  A    between atoms: _20  and  _23
REMARK   10  A    between atoms: _23  and  _24
REMARK   11  A    between atoms: _27  and  _29
REMARK   12  A    between atoms: _29  and  _30
REMARK   13  A    between atoms: _29  and  _32
REMARK   14  A    between atoms: _32  and  _33
REMARK   15  A    between atoms: _36  and  _38
REMARK   16  A    between atoms: _38  and  _39
REMARK   17  A    between atoms: _38  and  _41
REMARK   18  A    between atoms: _41  and  _42
REMARK   19  A    between atoms: _45  and  _47
REMARK   20  A    between atoms: _47  and  _48
REMARK   21  A    between atoms: _47  and  _50
REMARK   22  A    between atoms: _50  and  _51
REMARK   23  A    between atoms: _54  and  _56
REMARK   24  A    between atoms: _56  and  _57
REMARK   25  A    between atoms: _56  and  _59
REMARK   26  A    between atoms: _59  and  _60
REMARK   27  A    between atoms: _63  and  _65
REMARK   28  A    between atoms: _65  and  _66
REMARK   29  A    between atoms: _68  and  _70
REMARK   30  A    between atoms: _70  and  _71
REMARK   31  A    between atoms: _74  and  _76
REMARK   32  A    between atoms: _76  and  _77
REMARK   33  A    between atoms: _76  and  _79
REMARK   34  A    between atoms: _79  and  _80
REMARK   35  A    between atoms: _83  and  _85
REMARK   36  A    between atoms: _85  and  _86
REMARK   37  A    between atoms: _85  and  _88
REMARK   38  A    between atoms: _88  and  _89
REMARK   39  A    between atoms: _92  and  _94
REMARK   40  A    between atoms: _94  and  _95
REMARK   41  A    between atoms: _94  and  _97
REMARK   42  A    between atoms: _97  and  _98
REMARK   43  A    between atoms: _101  and  _103
REMARK   44  A    between atoms: _103  and  _104
REMARK   45  A    between atoms: _103  and  _106
REMARK   46  A    between atoms: _109  and  _111
REMARK   47  A    between atoms: _111  and  _112
REMARK   48  A    between atoms: _111  and  _114
REMARK   49  A    between atoms: _114  and  _115
REMARK   50  A    between atoms: _115  and  _116
REMARK   51  A    between atoms: _116  and  _117
REMARK   52  A    between atoms: _117  and  _118
REMARK   53  A    between atoms: _122  and  _124
REMARK   54  A    between atoms: _124  and  _125
REMARK   55  A    between atoms: _124  and  _127
REMARK   56  A    between atoms: _127  and  _128
REMARK   57  A    between atoms: _128  and  _129
REMARK   58  A    between atoms: _131  and  _133
REMARK   59  A    between atoms: _133  and  _134
REMARK   60  A    between atoms: _133  and  _136
REMARK   61  A    between atoms: _136  and  _137
REMARK   62  A    between atoms: _140  and  _142
REMARK   63  A    between atoms: _142  and  _143
REMARK   64  A    between atoms: _145  and  _147
REMARK   65  A    between atoms: _147  and  _148
REMARK   66  A    between atoms: _150  and  _152
REMARK   67  A    between atoms: _152  and  _153
REMARK   68  A    between atoms: _152  and  _155
REMARK   69  A    between atoms: _155  and  _156
REMARK   70  A    between atoms: _159  and  _161
REMARK   71  A    between atoms: _161  and  _162
REMARK   72  A    between atoms: _164  and  _166
REMARK   73  A    between atoms: _166  and  _167
REMARK   74  A    between atoms: _169  and  _171
REMARK   75  A    between atoms: _171  and  _172
REMARK   76  A    between atoms: _171  and  _174
REMARK   77  A    between atoms: _174  and  _175
REMARK   78  A    between atoms: _181  and  _183
REMARK   79  A    between atoms: _183  and  _184
REMARK   80  A    between atoms: _183  and  _186
REMARK   81  A    between atoms: _186  and  _187
REMARK   82  A    between atoms: _190  and  _192
REMARK   83  A    between atoms: _192  and  _193
REMARK   84  A    between atoms: _192  and  _195
REMARK   85  A    between atoms: _198  and  _200
REMARK   86  A    between atoms: _200  and  _201
REMARK   87  A    between atoms: _200  and  _203
REMARK   88  A    between atoms: _203  and  _204
REMARK   89  A    between atoms: _207  and  _209
REMARK   90  A    between atoms: _209  and  _210
REMARK   91  A    between atoms: _209  and  _212
REMARK   92  A    between atoms: _212  and  _213
REMARK   93  A    between atoms: _217  and  _218
REMARK   94  A    between atoms: _223  and  _225
REMARK   95  A    between atoms: _225  and  _226
REMARK   96  A    between atoms: _229  and  _231
REMARK   97  A    between atoms: _231  and  _232
REMARK   98  A    between atoms: _231  and  _234
REMARK   99  A    between atoms: _234  and  _235
REMARK  100  A    between atoms: _240  and  _242
REMARK  101  A    between atoms: _242  and  _243
REMARK  102  A    between atoms: _242  and  _245
REMARK  103  A    between atoms: _245  and  _246
REMARK  104  A    between atoms: _249  and  _251
REMARK  105  A    between atoms: _251  and  _252
REMARK  106  A    between atoms: _251  and  _254
REMARK  107  A    between atoms: _254  and  _255
REMARK  108  A    between atoms: _258  and  _260
REMARK  109  A    between atoms: _260  and  _261
REMARK  110  A    between atoms: _263  and  _265
REMARK  111  A    between atoms: _265  and  _266
REMARK  112  A    between atoms: _265  and  _268
REMARK  113  A    between atoms: _268  and  _269
REMARK  114  A    between atoms: _269  and  _270
REMARK  115  A    between atoms: _270  and  _271
REMARK  116  A    between atoms: _280  and  _282
REMARK  117  A    between atoms: _282  and  _283
REMARK  118  A    between atoms: _282  and  _285
REMARK  119  A    between atoms: _285  and  _286
REMARK  120  A    between atoms: _286  and  _287
REMARK  121  A    between atoms: _287  and  _288
REMARK  122  A    between atoms: _297  and  _299
REMARK  123  A    between atoms: _299  and  _300
REMARK  124  A    between atoms: _299  and  _302
REMARK  125  A    between atoms: _302  and  _303
REMARK  126  A    between atoms: _306  and  _308
REMARK  127  A    between atoms: _308  and  _309
REMARK  128  A    between atoms: _308  and  _311
REMARK  129  A    between atoms: _311  and  _312
REMARK  130  A    between atoms: _315  and  _317
REMARK  131  A    between atoms: _317  and  _318
REMARK  132  A    between atoms: _317  and  _320
REMARK  133  A    between atoms: _320  and  _321
REMARK  134  A    between atoms: _324  and  _326
REMARK  135  A    between atoms: _326  and  _327
REMARK  136  A    between atoms: _326  and  _329
REMARK  137  A    between atoms: _329  and  _330
REMARK  138  A    between atoms: _333  and  _335
REMARK  139  A    between atoms: _335  and  _336
REMARK  140  A    between atoms: _338  and  _340
REMARK  141  A    between atoms: _340  and  _341
REMARK  142  A    between atoms: _344  and  _346
REMARK  143  A    between atoms: _346  and  _347
REMARK  144  A    between atoms: _346  and  _349
REMARK  145  A    between atoms: _349  and  _350
REMARK  146  A    between atoms: _353  and  _355
REMARK  147  A    between atoms: _355  and  _356
REMARK  148  A    between atoms: _355  and  _358
REMARK  149  A    between atoms: _358  and  _359
REMARK  150  A    between atoms: _362  and  _364
REMARK  151  A    between atoms: _364  and  _365
REMARK  152  A    between atoms: _364  and  _367
REMARK  153  A    between atoms: _367  and  _368
REMARK  154  A    between atoms: _371  and  _373
REMARK  155  A    between atoms: _373  and  _374
REMARK  156  A    between atoms: _373  and  _376
REMARK  157  A    between atoms: _379  and  _381
REMARK  158  A    between atoms: _381  and  _382
REMARK  159  A    between atoms: _381  and  _384
REMARK  160  A    between atoms: _384  and  _385
REMARK  161  A    between atoms: _388  and  _390
REMARK  162  A    between atoms: _390  and  _391
REMARK  163  A    between atoms: _390  and  _393
REMARK  164  A    between atoms: _393  and  _394
REMARK  165  A    between atoms: _394  and  _395
REMARK  166  A    between atoms: _395  and  _396
REMARK  167  A    between atoms: _396  and  _397
REMARK  168  A    between atoms: _401  and  _403
REMARK  169  A    between atoms: _403  and  _404
REMARK  170  A    between atoms: _403  and  _406
REMARK  171  A    between atoms: _406  and  _407
REMARK  172  A    between atoms: _407  and  _408
REMARK  173  A    between atoms: _410  and  _412
REMARK  174  A    between atoms: _412  and  _413
REMARK  175  A    between atoms: _412  and  _415
REMARK  176  A    between atoms: _415  and  _416
REMARK  177  A    between atoms: _419  and  _421
REMARK  178  A    between atoms: _421  and  _422
REMARK  179  A    between atoms: _424  and  _426
REMARK  180  A    between atoms: _426  and  _427
REMARK  181  A    between atoms: _429  and  _431
REMARK  182  A    between atoms: _431  and  _432
REMARK  183  A    between atoms: _431  and  _434
REMARK  184  A    between atoms: _434  and  _435
REMARK  185  A    between atoms: _438  and  _440
REMARK  186  A    between atoms: _440  and  _441
REMARK  187  A    between atoms: _443  and  _445
REMARK  188  A    between atoms: _445  and  _446
REMARK  189  A    between atoms: _448  and  _450
REMARK  190  A    between atoms: _450  and  _451
REMARK  191  A    between atoms: _450  and  _453
REMARK  192  A    between atoms: _453  and  _454
REMARK  193  A    between atoms: _460  and  _462
REMARK  194  A    between atoms: _462  and  _463
REMARK  195  A    between atoms: _462  and  _465
REMARK  196  A    between atoms: _465  and  _466
REMARK  197  A    between atoms: _469  and  _471
REMARK  198  A    between atoms: _471  and  _472
REMARK  199  A    between atoms: _471  and  _474
REMARK  200  A    between atoms: _477  and  _479
REMARK  201  A    between atoms: _479  and  _480
REMARK  202  A    between atoms: _479  and  _482
REMARK  203  A    between atoms: _482  and  _483
REMARK  204  A    between atoms: _486  and  _488
REMARK  205  A    between atoms: _488  and  _489
REMARK  206  A    between atoms: _488  and  _491
REMARK  207  A    between atoms: _491  and  _492
REMARK  208  A    between atoms: _496  and  _497
REMARK  209  A    between atoms: _502  and  _504
REMARK  210  A    between atoms: _504  and  _505
REMARK  211  A    between atoms: _508  and  _510
REMARK  212  A    between atoms: _510  and  _511
REMARK  213  A    between atoms: _510  and  _513
REMARK  214  A    between atoms: _513  and  _514
REMARK  215  A    between atoms: _519  and  _521
REMARK  216  A    between atoms: _521  and  _522
REMARK  217  A    between atoms: _521  and  _524
REMARK  218  A    between atoms: _524  and  _525
REMARK  219  A    between atoms: _528  and  _530
REMARK  220  A    between atoms: _530  and  _531
REMARK  221  A    between atoms: _530  and  _533
REMARK  222  A    between atoms: _533  and  _534
REMARK  223  A    between atoms: _537  and  _539
REMARK  224  A    between atoms: _539  and  _540
REMARK  225  A    between atoms: _542  and  _544
REMARK  226  A    between atoms: _544  and  _545
REMARK  227  A    between atoms: _544  and  _547
REMARK  228  A    between atoms: _547  and  _548
REMARK  229  A    between atoms: _548  and  _549
REMARK  230  A    between atoms: _549  and  _550
REMARK  231  A    between atoms: _559  and  _561
REMARK  232  A    between atoms: _561  and  _562
REMARK  233  A    between atoms: _561  and  _564
REMARK  234  A    between atoms: _564  and  _565
REMARK                            x       y       z     vdW  Elec       q    Type
REMARK                         _______ _______ _______ _____ _____    ______ ____
ROOT
ATOM      1  O   HOH     1      23.740   7.660   4.915  0.00  0.00    +0.000 OA
ENDROOT
TORSDOF 0
REMARK  Name = ../refined-set-2016/1sdv/1sdv_pocket.pdb
REMARK  234 active torsions:
REMARK  status: ('A' for Active; 'I' for Inactive)
REMARK    1  A    between atoms: _1  and  _3
REMARK    2  A    between atoms: _3  and  _4
REMARK    3  A    between atoms: _3  and  _6
REMARK    4  A    between atoms: _6  and  _7
REMARK    5  A    between atoms: _7  and  _8
REMARK    6  A    between atoms: _8  and  _9
REMARK    7  A    between atoms: _18  and  _20
REMARK    8  A    between atoms: _20  and  _21
REMARK    9  A    between atoms: _20  and  _23
REMARK   10  A    between atoms: _23  and  _24
REMARK   11  A    between atoms: _27  and  _29
REMARK   12  A    between atoms: _29  and  _30
REMARK   13  A    between atoms: _29  and  _32
REMARK   14  A    between atoms: _32  and  _33
REMARK   15  A    between atoms: _36  and  _38
REMARK   16  A    between atoms: _38  and  _39
REMARK   17  A    between atoms: _38  and  _41
REMARK   18  A    between atoms: _41  and  _42
REMARK   19  A    between atoms: _45  and  _47
REMARK   20  A    between atoms: _47  and  _48
REMARK   21  A    between atoms: _47  and  _50
REMARK   22  A    between atoms: _50  and  _51
REMARK   23  A    between atoms: _54  and  _56
REMARK   24  A    between atoms: _56  and  _57
REMARK   25  A    between atoms: _56  and  _59
REMARK   26  A    between atoms: _59  and  _60
REMARK   27  A    between atoms: _63  and  _65
REMARK   28  A    between atoms: _65  and  _66
REMARK   29  A    between atoms: _68  and  _70
REMARK   30  A    between atoms: _70  and  _71
REMARK   31  A    between atoms: _74  and  _76
REMARK   32  A    between atoms: _76  and  _77
REMARK   33  A    between atoms: _76  and  _79
REMARK   34  A    between atoms: _79  and  _80
REMARK   35  A    between atoms: _83  and  _85
REMARK   36  A    between atoms: _85  and  _86
REMARK   37  A    between atoms: _85  and  _88
REMARK   38  A    between atoms: _88  and  _89
REMARK   39  A    between atoms: _92  and  _94
REMARK   40  A    between atoms: _94  and  _95
REMARK   41  A    between atoms: _94  and  _97
REMARK   42  A    between atoms: _97  and  _98
REMARK   43  A    between atoms: _101  and  _103
REMARK   44  A    between atoms: _103  and  _104
REMARK   45  A    between atoms: _103  and  _106
REMARK   46  A    between atoms: _109  and  _111
REMARK   47  A    between atoms: _111  and  _112
REMARK   48  A    between atoms: _111  and  _114
REMARK   49  A    between atoms: _114  and  _115
REMARK   50  A    between atoms: _115  and  _116
REMARK   51  A    between atoms: _116  and  _117
REMARK   52  A    between atoms: _117  and  _118
REMARK   53  A    between atoms: _122  and  _124
REMARK   54  A    between atoms: _124  and  _125
REMARK   55  A    between atoms: _124  and  _127
REMARK   56  A    between atoms: _127  and  _128
REMARK   57  A    between atoms: _128  and  _129
REMARK   58  A    between atoms: _131  and  _133
REMARK   59  A    between atoms: _133  and  _134
REMARK   60  A    between atoms: _133  and  _136
REMARK   61  A    between atoms: _136  and  _137
REMARK   62  A    between atoms: _140  and  _142
REMARK   63  A    between atoms: _142  and  _143
REMARK   64  A    between atoms: _145  and  _147
REMARK   65  A    between atoms: _147  and  _148
REMARK   66  A    between atoms: _150  and  _152
REMARK   67  A    between atoms: _152  and  _153
REMARK   68  A    between atoms: _152  and  _155
REMARK   69  A    between atoms: _155  and  _156
REMARK   70  A    between atoms: _159  and  _161
REMARK   71  A    between atoms: _161  and  _162
REMARK   72  A    between atoms: _164  and  _166
REMARK   73  A    between atoms: _166  and  _167
REMARK   74  A    between atoms: _169  and  _171
REMARK   75  A    between atoms: _171  and  _172
REMARK   76  A    between atoms: _171  and  _174
REMARK   77  A    between atoms: _174  and  _175
REMARK   78  A    between atoms: _181  and  _183
REMARK   79  A    between atoms: _183  and  _184
REMARK   80  A    between atoms: _183  and  _186
REMARK   81  A    between atoms: _186  and  _187
REMARK   82  A    between atoms: _190  and  _192
REMARK   83  A    between atoms: _192  and  _193
REMARK   84  A    between atoms: _192  and  _195
REMARK   85  A    between atoms: _198  and  _200
REMARK   86  A    between atoms: _200  and  _201
REMARK   87  A    between atoms: _200  and  _203
REMARK   88  A    between atoms: _203  and  _204
REMARK   89  A    between atoms: _207  and  _209
REMARK   90  A    between atoms: _209  and  _210
REMARK   91  A    between atoms: _209  and  _212
REMARK   92  A    between atoms: _212  and  _213
REMARK   93  A    between atoms: _217  and  _218
REMARK   94  A    between atoms: _223  and  _225
REMARK   95  A    between atoms: _225  and  _226
REMARK   96  A    between atoms: _229  and  _231
REMARK   97  A    between atoms: _231  and  _232
REMARK   98  A    between atoms: _231  and  _234
REMARK   99  A    between atoms: _234  and  _235
REMARK  100  A    between atoms: _240  and  _242
REMARK  101  A    between atoms: _242  and  _243
REMARK  102  A    between atoms: _242  and  _245
REMARK  103  A    between atoms: _245  and  _246
REMARK  104  A    between atoms: _249  and  _251
REMARK  105  A    between atoms: _251  and  _252
REMARK  106  A    between atoms: _251  and  _254
REMARK  107  A    between atoms: _254  and  _255
REMARK  108  A    between atoms: _258  and  _260
REMARK  109  A    between atoms: _260  and  _261
REMARK  110  A    between atoms: _263  and  _265
REMARK  111  A    between atoms: _265  and  _266
REMARK  112  A    between atoms: _265  and  _268
REMARK  113  A    between atoms: _268  and  _269
REMARK  114  A    between atoms: _269  and  _270
REMARK  115  A    between atoms: _270  and  _271
REMARK  116  A    between atoms: _280  and  _282
REMARK  117  A    between atoms: _282  and  _283
REMARK  118  A    between atoms: _282  and  _285
REMARK  119  A    between atoms: _285  and  _286
REMARK  120  A    between atoms: _286  and  _287
REMARK  121  A    between atoms: _287  and  _288
REMARK  122  A    between atoms: _297  and  _299
REMARK  123  A    between atoms: _299  and  _300
REMARK  124  A    between atoms: _299  and  _302
REMARK  125  A    between atoms: _302  and  _303
REMARK  126  A    between atoms: _306  and  _308
REMARK  127  A    between atoms: _308  and  _309
REMARK  128  A    between atoms: _308  and  _311
REMARK  129  A    between atoms: _311  and  _312
REMARK  130  A    between atoms: _315  and  _317
REMARK  131  A    between atoms: _317  and  _318
REMARK  132  A    between atoms: _317  and  _320
REMARK  133  A    between atoms: _320  and  _321
REMARK  134  A    between atoms: _324  and  _326
REMARK  135  A    between atoms: _326  and  _327
REMARK  136  A    between atoms: _326  and  _329
REMARK  137  A    between atoms: _329  and  _330
REMARK  138  A    between atoms: _333  and  _335
REMARK  139  A    between atoms: _335  and  _336
REMARK  140  A    between atoms: _338  and  _340
REMARK  141  A    between atoms: _340  and  _341
REMARK  142  A    between atoms: _344  and  _346
REMARK  143  A    between atoms: _346  and  _347
REMARK  144  A    between atoms: _346  and  _349
REMARK  145  A    between atoms: _349  and  _350
REMARK  146  A    between atoms: _353  and  _355
REMARK  147  A    between atoms: _355  and  _356
REMARK  148  A    between atoms: _355  and  _358
REMARK  149  A    between atoms: _358  and  _359
REMARK  150  A    between atoms: _362  and  _364
REMARK  151  A    between atoms: _364  and  _365
REMARK  152  A    between atoms: _364  and  _367
REMARK  153  A    between atoms: _367  and  _368
REMARK  154  A    between atoms: _371  and  _373
REMARK  155  A    between atoms: _373  and  _374
REMARK  156  A    between atoms: _373  and  _376
REMARK  157  A    between atoms: _379  and  _381
REMARK  158  A    between atoms: _381  and  _382
REMARK  159  A    between atoms: _381  and  _384
REMARK  160  A    between atoms: _384  and  _385
REMARK  161  A    between atoms: _388  and  _390
REMARK  162  A    between atoms: _390  and  _391
REMARK  163  A    between atoms: _390  and  _393
REMARK  164  A    between atoms: _393  and  _394
REMARK  165  A    between atoms: _394  and  _395
REMARK  166  A    between atoms: _395  and  _396
REMARK  167  A    between atoms: _396  and  _397
REMARK  168  A    between atoms: _401  and  _403
REMARK  169  A    between atoms: _403  and  _404
REMARK  170  A    between atoms: _403  and  _406
REMARK  171  A    between atoms: _406  and  _407
REMARK  172  A    between atoms: _407  and  _408
REMARK  173  A    between atoms: _410  and  _412
REMARK  174  A    between atoms: _412  and  _413
REMARK  175  A    between atoms: _412  and  _415
REMARK  176  A    between atoms: _415  and  _416
REMARK  177  A    between atoms: _419  and  _421
REMARK  178  A    between atoms: _421  and  _422
REMARK  179  A    between atoms: _424  and  _426
REMARK  180  A    between atoms: _426  and  _427
REMARK  181  A    between atoms: _429  and  _431
REMARK  182  A    between atoms: _431  and  _432
REMARK  183  A    between atoms: _431  and  _434
REMARK  184  A    between atoms: _434  and  _435
REMARK  185  A    between atoms: _438  and  _440
REMARK  186  A    between atoms: _440  and  _441
REMARK  187  A    between atoms: _443  and  _445
REMARK  188  A    between atoms: _445  and  _446
REMARK  189  A    between atoms: _448  and  _450
REMARK  190  A    between atoms: _450  and  _451
REMARK  191  A    between atoms: _450  and  _453
REMARK  192  A    between atoms: _453  and  _454
REMARK  193  A    between atoms: _460  and  _462
REMARK  194  A    between atoms: _462  and  _463
REMARK  195  A    between atoms: _462  and  _465
REMARK  196  A    between atoms: _465  and  _466
REMARK  197  A    between atoms: _469  and  _471
REMARK  198  A    between atoms: _471  and  _472
REMARK  199  A    between atoms: _471  and  _474
REMARK  200  A    between atoms: _477  and  _479
REMARK  201  A    between atoms: _479  and  _480
REMARK  202  A    between atoms: _479  and  _482
REMARK  203  A    between atoms: _482  and  _483
REMARK  204  A    between atoms: _486  and  _488
REMARK  205  A    between atoms: _488  and  _489
REMARK  206  A    between atoms: _488  and  _491
REMARK  207  A    between atoms: _491  and  _492
REMARK  208  A    between atoms: _496  and  _497
REMARK  209  A    between atoms: _502  and  _504
REMARK  210  A    between atoms: _504  and  _505
REMARK  211  A    between atoms: _508  and  _510
REMARK  212  A    between atoms: _510  and  _511
REMARK  213  A    between atoms: _510  and  _513
REMARK  214  A    between atoms: _513  and  _514
REMARK  215  A    between atoms: _519  and  _521
REMARK  216  A    between atoms: _521  and  _522
REMARK  217  A    between atoms: _521  and  _524
REMARK  218  A    between atoms: _524  and  _525
REMARK  219  A    between atoms: _528  and  _530
REMARK  220  A    between atoms: _530  and  _531
REMARK  221  A    between atoms: _530  and  _533
REMARK  222  A    between atoms: _533  and  _534
REMARK  223  A    between atoms: _537  and  _539
REMARK  224  A    between atoms: _539  and  _540
REMARK  225  A    between atoms: _542  and  _544
REMARK  226  A    between atoms: _544  and  _545
REMARK  227  A    between atoms: _544  and  _547
REMARK  228  A    between atoms: _547  and  _548
REMARK  229  A    between atoms: _548  and  _549
REMARK  230  A    between atoms: _549  and  _550
REMARK  231  A    between atoms: _559  and  _561
REMARK  232  A    between atoms: _561  and  _562
REMARK  233  A    between atoms: _561  and  _564
REMARK  234  A    between atoms: _564  and  _565
REMARK                            x       y       z     vdW  Elec       q    Type
REMARK                         _______ _______ _______ _____ _____    ______ ____
ROOT
ATOM      1  O   HOH     1      15.971   9.159  -3.793  0.00  0.00    +0.000 OA
ENDROOT
TORSDOF 0
REMARK  Name = ../refined-set-2016/1sdv/1sdv_pocket.pdb
REMARK  234 active torsions:
REMARK  status: ('A' for Active; 'I' for Inactive)
REMARK    1  A    between atoms: _1  and  _3
REMARK    2  A    between atoms: _3  and  _4
REMARK    3  A    between atoms: _3  and  _6
REMARK    4  A    between atoms: _6  and  _7
REMARK    5  A    between atoms: _7  and  _8
REMARK    6  A    between atoms: _8  and  _9
REMARK    7  A    between atoms: _18  and  _20
REMARK    8  A    between atoms: _20  and  _21
REMARK    9  A    between atoms: _20  and  _23
REMARK   10  A    between atoms: _23  and  _24
REMARK   11  A    between atoms: _27  and  _29
REMARK   12  A    between atoms: _29  and  _30
REMARK   13  A    between atoms: _29  and  _32
REMARK   14  A    between atoms: _32  and  _33
REMARK   15  A    between atoms: _36  and  _38
REMARK   16  A    between atoms: _38  and  _39
REMARK   17  A    between atoms: _38  and  _41
REMARK   18  A    between atoms: _41  and  _42
REMARK   19  A    between atoms: _45  and  _47
REMARK   20  A    between atoms: _47  and  _48
REMARK   21  A    between atoms: _47  and  _50
REMARK   22  A    between atoms: _50  and  _51
REMARK   23  A    between atoms: _54  and  _56
REMARK   24  A    between atoms: _56  and  _57
REMARK   25  A    between atoms: _56  and  _59
REMARK   26  A    between atoms: _59  and  _60
REMARK   27  A    between atoms: _63  and  _65
REMARK   28  A    between atoms: _65  and  _66
REMARK   29  A    between atoms: _68  and  _70
REMARK   30  A    between atoms: _70  and  _71
REMARK   31  A    between atoms: _74  and  _76
REMARK   32  A    between atoms: _76  and  _77
REMARK   33  A    between atoms: _76  and  _79
REMARK   34  A    between atoms: _79  and  _80
REMARK   35  A    between atoms: _83  and  _85
REMARK   36  A    between atoms: _85  and  _86
REMARK   37  A    between atoms: _85  and  _88
REMARK   38  A    between atoms: _88  and  _89
REMARK   39  A    between atoms: _92  and  _94
REMARK   40  A    between atoms: _94  and  _95
REMARK   41  A    between atoms: _94  and  _97
REMARK   42  A    between atoms: _97  and  _98
REMARK   43  A    between atoms: _101  and  _103
REMARK   44  A    between atoms: _103  and  _104
REMARK   45  A    between atoms: _103  and  _106
REMARK   46  A    between atoms: _109  and  _111
REMARK   47  A    between atoms: _111  and  _112
REMARK   48  A    between atoms: _111  and  _114
REMARK   49  A    between atoms: _114  and  _115
REMARK   50  A    between atoms: _115  and  _116
REMARK   51  A    between atoms: _116  and  _117
REMARK   52  A    between atoms: _117  and  _118
REMARK   53  A    between atoms: _122  and  _124
REMARK   54  A    between atoms: _124  and  _125
REMARK   55  A    between atoms: _124  and  _127
REMARK   56  A    between atoms: _127  and  _128
REMARK   57  A    between atoms: _128  and  _129
REMARK   58  A    between atoms: _131  and  _133
REMARK   59  A    between atoms: _133  and  _134
REMARK   60  A    between atoms: _133  and  _136
REMARK   61  A    between atoms: _136  and  _137
REMARK   62  A    between atoms: _140  and  _142
REMARK   63  A    between atoms: _142  and  _143
REMARK   64  A    between atoms: _145  and  _147
REMARK   65  A    between atoms: _147  and  _148
REMARK   66  A    between atoms: _150  and  _152
REMARK   67  A    between atoms: _152  and  _153
REMARK   68  A    between atoms: _152  and  _155
REMARK   69  A    between atoms: _155  and  _156
REMARK   70  A    between atoms: _159  and  _161
REMARK   71  A    between atoms: _161  and  _162
REMARK   72  A    between atoms: _164  and  _166
REMARK   73  A    between atoms: _166  and  _167
REMARK   74  A    between atoms: _169  and  _171
REMARK   75  A    between atoms: _171  and  _172
REMARK   76  A    between atoms: _171  and  _174
REMARK   77  A    between atoms: _174  and  _175
REMARK   78  A    between atoms: _181  and  _183
REMARK   79  A    between atoms: _183  and  _184
REMARK   80  A    between atoms: _183  and  _186
REMARK   81  A    between atoms: _186  and  _187
REMARK   82  A    between atoms: _190  and  _192
REMARK   83  A    between atoms: _192  and  _193
REMARK   84  A    between atoms: _192  and  _195
REMARK   85  A    between atoms: _198  and  _200
REMARK   86  A    between atoms: _200  and  _201
REMARK   87  A    between atoms: _200  and  _203
REMARK   88  A    between atoms: _203  and  _204
REMARK   89  A    between atoms: _207  and  _209
REMARK   90  A    between atoms: _209  and  _210
REMARK   91  A    between atoms: _209  and  _212
REMARK   92  A    between atoms: _212  and  _213
REMARK   93  A    between atoms: _217  and  _218
REMARK   94  A    between atoms: _223  and  _225
REMARK   95  A    between atoms: _225  and  _226
REMARK   96  A    between atoms: _229  and  _231
REMARK   97  A    between atoms: _231  and  _232
REMARK   98  A    between atoms: _231  and  _234
REMARK   99  A    between atoms: _234  and  _235
REMARK  100  A    between atoms: _240  and  _242
REMARK  101  A    between atoms: _242  and  _243
REMARK  102  A    between atoms: _242  and  _245
REMARK  103  A    between atoms: _245  and  _246
REMARK  104  A    between atoms: _249  and  _251
REMARK  105  A    between atoms: _251  and  _252
REMARK  106  A    between atoms: _251  and  _254
REMARK  107  A    between atoms: _254  and  _255
REMARK  108  A    between atoms: _258  and  _260
REMARK  109  A    between atoms: _260  and  _261
REMARK  110  A    between atoms: _263  and  _265
REMARK  111  A    between atoms: _265  and  _266
REMARK  112  A    between atoms: _265  and  _268
REMARK  113  A    between atoms: _268  and  _269
REMARK  114  A    between atoms: _269  and  _270
REMARK  115  A    between atoms: _270  and  _271
REMARK  116  A    between atoms: _280  and  _282
REMARK  117  A    between atoms: _282  and  _283
REMARK  118  A    between atoms: _282  and  _285
REMARK  119  A    between atoms: _285  and  _286
REMARK  120  A    between atoms: _286  and  _287
REMARK  121  A    between atoms: _287  and  _288
REMARK  122  A    between atoms: _297  and  _299
REMARK  123  A    between atoms: _299  and  _300
REMARK  124  A    between atoms: _299  and  _302
REMARK  125  A    between atoms: _302  and  _303
REMARK  126  A    between atoms: _306  and  _308
REMARK  127  A    between atoms: _308  and  _309
REMARK  128  A    between atoms: _308  and  _311
REMARK  129  A    between atoms: _311  and  _312
REMARK  130  A    between atoms: _315  and  _317
REMARK  131  A    between atoms: _317  and  _318
REMARK  132  A    between atoms: _317  and  _320
REMARK  133  A    between atoms: _320  and  _321
REMARK  134  A    between atoms: _324  and  _326
REMARK  135  A    between atoms: _326  and  _327
REMARK  136  A    between atoms: _326  and  _329
REMARK  137  A    between atoms: _329  and  _330
REMARK  138  A    between atoms: _333  and  _335
REMARK  139  A    between atoms: _335  and  _336
REMARK  140  A    between atoms: _338  and  _340
REMARK  141  A    between atoms: _340  and  _341
REMARK  142  A    between atoms: _344  and  _346
REMARK  143  A    between atoms: _346  and  _347
REMARK  144  A    between atoms: _346  and  _349
REMARK  145  A    between atoms: _349  and  _350
REMARK  146  A    between atoms: _353  and  _355
REMARK  147  A    between atoms: _355  and  _356
REMARK  148  A    between atoms: _355  and  _358
REMARK  149  A    between atoms: _358  and  _359
REMARK  150  A    between atoms: _362  and  _364
REMARK  151  A    between atoms: _364  and  _365
REMARK  152  A    between atoms: _364  and  _367
REMARK  153  A    between atoms: _367  and  _368
REMARK  154  A    between atoms: _371  and  _373
REMARK  155  A    between atoms: _373  and  _374
REMARK  156  A    between atoms: _373  and  _376
REMARK  157  A    between atoms: _379  and  _381
REMARK  158  A    between atoms: _381  and  _382
REMARK  159  A    between atoms: _381  and  _384
REMARK  160  A    between atoms: _384  and  _385
REMARK  161  A    between atoms: _388  and  _390
REMARK  162  A    between atoms: _390  and  _391
REMARK  163  A    between atoms: _390  and  _393
REMARK  164  A    between atoms: _393  and  _394
REMARK  165  A    between atoms: _394  and  _395
REMARK  166  A    between atoms: _395  and  _396
REMARK  167  A    between atoms: _396  and  _397
REMARK  168  A    between atoms: _401  and  _403
REMARK  169  A    between atoms: _403  and  _404
REMARK  170  A    between atoms: _403  and  _406
REMARK  171  A    between atoms: _406  and  _407
REMARK  172  A    between atoms: _407  and  _408
REMARK  173  A    between atoms: _410  and  _412
REMARK  174  A    between atoms: _412  and  _413
REMARK  175  A    between atoms: _412  and  _415
REMARK  176  A    between atoms: _415  and  _416
REMARK  177  A    between atoms: _419  and  _421
REMARK  178  A    between atoms: _421  and  _422
REMARK  179  A    between atoms: _424  and  _426
REMARK  180  A    between atoms: _426  and  _427
REMARK  181  A    between atoms: _429  and  _431
REMARK  182  A    between atoms: _431  and  _432
REMARK  183  A    between atoms: _431  and  _434
REMARK  184  A    between atoms: _434  and  _435
REMARK  185  A    between atoms: _438  and  _440
REMARK  186  A    between atoms: _440  and  _441
REMARK  187  A    between atoms: _443  and  _445
REMARK  188  A    between atoms: _445  and  _446
REMARK  189  A    between atoms: _448  and  _450
REMARK  190  A    between atoms: _450  and  _451
REMARK  191  A    between atoms: _450  and  _453
REMARK  192  A    between atoms: _453  and  _454
REMARK  193  A    between atoms: _460  and  _462
REMARK  194  A    between atoms: _462  and  _463
REMARK  195  A    between atoms: _462  and  _465
REMARK  196  A    between atoms: _465  and  _466
REMARK  197  A    between atoms: _469  and  _471
REMARK  198  A    between atoms: _471  and  _472
REMARK  199  A    between atoms: _471  and  _474
REMARK  200  A    between atoms: _477  and  _479
REMARK  201  A    between atoms: _479  and  _480
REMARK  202  A    between atoms: _479  and  _482
REMARK  203  A    between atoms: _482  and  _483
REMARK  204  A    between atoms: _486  and  _488
REMARK  205  A    between atoms: _488  and  _489
REMARK  206  A    between atoms: _488  and  _491
REMARK  207  A    between atoms: _491  and  _492
REMARK  208  A    between atoms: _496  and  _497
REMARK  209  A    between atoms: _502  and  _504
REMARK  210  A    between atoms: _504  and  _505
REMARK  211  A    between atoms: _508  and  _510
REMARK  212  A    between atoms: _510  and  _511
REMARK  213  A    between atoms: _510  and  _513
REMARK  214  A    between atoms: _513  and  _514
REMARK  215  A    between atoms: _519  and  _521
REMARK  216  A    between atoms: _521  and  _522
REMARK  217  A    between atoms: _521  and  _524
REMARK  218  A    between atoms: _524  and  _525
REMARK  219  A    between atoms: _528  and  _530
REMARK  220  A    between atoms: _530  and  _531
REMARK  221  A    between atoms: _530  and  _533
REMARK  222  A    between atoms: _533  and  _534
REMARK  223  A    between atoms: _537  and  _539
REMARK  224  A    between atoms: _539  and  _540
REMARK  225  A    between atoms: _542  and  _544
REMARK  226  A    between atoms: _544  and  _545
REMARK  227  A    between atoms: _544  and  _547
REMARK  228  A    between atoms: _547  and  _548
REMARK  229  A    between atoms: _548  and  _549
REMARK  230  A    between atoms: _549  and  _550
REMARK  231  A    between atoms: _559  and  _561
REMARK  232  A    between atoms: _561  and  _562
REMARK  233  A    between atoms: _561  and  _564
REMARK  234  A    between atoms: _564  and  _565
REMARK                            x       y       z     vdW  Elec       q    Type
REMARK                         _______ _______ _______ _____ _____    ______ ____
ROOT
ATOM      1  O   HOH     1      20.727  18.081   6.778  0.00  0.00    +0.000 OA
ENDROOT
TORSDOF 0
REMARK  Name = ../refined-set-2016/1sdv/1sdv_pocket.pdb
REMARK  234 active torsions:
REMARK  status: ('A' for Active; 'I' for Inactive)
REMARK    1  A    between atoms: _1  and  _3
REMARK    2  A    between atoms: _3  and  _4
REMARK    3  A    between atoms: _3  and  _6
REMARK    4  A    between atoms: _6  and  _7
REMARK    5  A    between atoms: _7  and  _8
REMARK    6  A    between atoms: _8  and  _9
REMARK    7  A    between atoms: _18  and  _20
REMARK    8  A    between atoms: _20  and  _21
REMARK    9  A    between atoms: _20  and  _23
REMARK   10  A    between atoms: _23  and  _24
REMARK   11  A    between atoms: _27  and  _29
REMARK   12  A    between atoms: _29  and  _30
REMARK   13  A    between atoms: _29  and  _32
REMARK   14  A    between atoms: _32  and  _33
REMARK   15  A    between atoms: _36  and  _38
REMARK   16  A    between atoms: _38  and  _39
REMARK   17  A    between atoms: _38  and  _41
REMARK   18  A    between atoms: _41  and  _42
REMARK   19  A    between atoms: _45  and  _47
REMARK   20  A    between atoms: _47  and  _48
REMARK   21  A    between atoms: _47  and  _50
REMARK   22  A    between atoms: _50  and  _51
REMARK   23  A    between atoms: _54  and  _56
REMARK   24  A    between atoms: _56  and  _57
REMARK   25  A    between atoms: _56  and  _59
REMARK   26  A    between atoms: _59  and  _60
REMARK   27  A    between atoms: _63  and  _65
REMARK   28  A    between atoms: _65  and  _66
REMARK   29  A    between atoms: _68  and  _70
REMARK   30  A    between atoms: _70  and  _71
REMARK   31  A    between atoms: _74  and  _76
REMARK   32  A    between atoms: _76  and  _77
REMARK   33  A    between atoms: _76  and  _79
REMARK   34  A    between atoms: _79  and  _80
REMARK   35  A    between atoms: _83  and  _85
REMARK   36  A    between atoms: _85  and  _86
REMARK   37  A    between atoms: _85  and  _88
REMARK   38  A    between atoms: _88  and  _89
REMARK   39  A    between atoms: _92  and  _94
REMARK   40  A    between atoms: _94  and  _95
REMARK   41  A    between atoms: _94  and  _97
REMARK   42  A    between atoms: _97  and  _98
REMARK   43  A    between atoms: _101  and  _103
REMARK   44  A    between atoms: _103  and  _104
REMARK   45  A    between atoms: _103  and  _106
REMARK   46  A    between atoms: _109  and  _111
REMARK   47  A    between atoms: _111  and  _112
REMARK   48  A    between atoms: _111  and  _114
REMARK   49  A    between atoms: _114  and  _115
REMARK   50  A    between atoms: _115  and  _116
REMARK   51  A    between atoms: _116  and  _117
REMARK   52  A    between atoms: _117  and  _118
REMARK   53  A    between atoms: _122  and  _124
REMARK   54  A    between atoms: _124  and  _125
REMARK   55  A    between atoms: _124  and  _127
REMARK   56  A    between atoms: _127  and  _128
REMARK   57  A    between atoms: _128  and  _129
REMARK   58  A    between atoms: _131  and  _133
REMARK   59  A    between atoms: _133  and  _134
REMARK   60  A    between atoms: _133  and  _136
REMARK   61  A    between atoms: _136  and  _137
REMARK   62  A    between atoms: _140  and  _142
REMARK   63  A    between atoms: _142  and  _143
REMARK   64  A    between atoms: _145  and  _147
REMARK   65  A    between atoms: _147  and  _148
REMARK   66  A    between atoms: _150  and  _152
REMARK   67  A    between atoms: _152  and  _153
REMARK   68  A    between atoms: _152  and  _155
REMARK   69  A    between atoms: _155  and  _156
REMARK   70  A    between atoms: _159  and  _161
REMARK   71  A    between atoms: _161  and  _162
REMARK   72  A    between atoms: _164  and  _166
REMARK   73  A    between atoms: _166  and  _167
REMARK   74  A    between atoms: _169  and  _171
REMARK   75  A    between atoms: _171  and  _172
REMARK   76  A    between atoms: _171  and  _174
REMARK   77  A    between atoms: _174  and  _175
REMARK   78  A    between atoms: _181  and  _183
REMARK   79  A    between atoms: _183  and  _184
REMARK   80  A    between atoms: _183  and  _186
REMARK   81  A    between atoms: _186  and  _187
REMARK   82  A    between atoms: _190  and  _192
REMARK   83  A    between atoms: _192  and  _193
REMARK   84  A    between atoms: _192  and  _195
REMARK   85  A    between atoms: _198  and  _200
REMARK   86  A    between atoms: _200  and  _201
REMARK   87  A    between atoms: _200  and  _203
REMARK   88  A    between atoms: _203  and  _204
REMARK   89  A    between atoms: _207  and  _209
REMARK   90  A    between atoms: _209  and  _210
REMARK   91  A    between atoms: _209  and  _212
REMARK   92  A    between atoms: _212  and  _213
REMARK   93  A    between atoms: _217  and  _218
REMARK   94  A    between atoms: _223  and  _225
REMARK   95  A    between atoms: _225  and  _226
REMARK   96  A    between atoms: _229  and  _231
REMARK   97  A    between atoms: _231  and  _232
REMARK   98  A    between atoms: _231  and  _234
REMARK   99  A    between atoms: _234  and  _235
REMARK  100  A    between atoms: _240  and  _242
REMARK  101  A    between atoms: _242  and  _243
REMARK  102  A    between atoms: _242  and  _245
REMARK  103  A    between atoms: _245  and  _246
REMARK  104  A    between atoms: _249  and  _251
REMARK  105  A    between atoms: _251  and  _252
REMARK  106  A    between atoms: _251  and  _254
REMARK  107  A    between atoms: _254  and  _255
REMARK  108  A    between atoms: _258  and  _260
REMARK  109  A    between atoms: _260  and  _261
REMARK  110  A    between atoms: _263  and  _265
REMARK  111  A    between atoms: _265  and  _266
REMARK  112  A    between atoms: _265  and  _268
REMARK  113  A    between atoms: _268  and  _269
REMARK  114  A    between atoms: _269  and  _270
REMARK  115  A    between atoms: _270  and  _271
REMARK  116  A    between atoms: _280  and  _282
REMARK  117  A    between atoms: _282  and  _283
REMARK  118  A    between atoms: _282  and  _285
REMARK  119  A    between atoms: _285  and  _286
REMARK  120  A    between atoms: _286  and  _287
REMARK  121  A    between atoms: _287  and  _288
REMARK  122  A    between atoms: _297  and  _299
REMARK  123  A    between atoms: _299  and  _300
REMARK  124  A    between atoms: _299  and  _302
REMARK  125  A    between atoms: _302  and  _303
REMARK  126  A    between atoms: _306  and  _308
REMARK  127  A    between atoms: _308  and  _309
REMARK  128  A    between atoms: _308  and  _311
REMARK  129  A    between atoms: _311  and  _312
REMARK  130  A    between atoms: _315  and  _317
REMARK  131  A    between atoms: _317  and  _318
REMARK  132  A    between atoms: _317  and  _320
REMARK  133  A    between atoms: _320  and  _321
REMARK  134  A    between atoms: _324  and  _326
REMARK  135  A    between atoms: _326  and  _327
REMARK  136  A    between atoms: _326  and  _329
REMARK  137  A    between atoms: _329  and  _330
REMARK  138  A    between atoms: _333  and  _335
REMARK  139  A    between atoms: _335  and  _336
REMARK  140  A    between atoms: _338  and  _340
REMARK  141  A    between atoms: _340  and  _341
REMARK  142  A    between atoms: _344  and  _346
REMARK  143  A    between atoms: _346  and  _347
REMARK  144  A    between atoms: _346  and  _349
REMARK  145  A    between atoms: _349  and  _350
REMARK  146  A    between atoms: _353  and  _355
REMARK  147  A    between atoms: _355  and  _356
REMARK  148  A    between atoms: _355  and  _358
REMARK  149  A    between atoms: _358  and  _359
REMARK  150  A    between atoms: _362  and  _364
REMARK  151  A    between atoms: _364  and  _365
REMARK  152  A    between atoms: _364  and  _367
REMARK  153  A    between atoms: _367  and  _368
REMARK  154  A    between atoms: _371  and  _373
REMARK  155  A    between atoms: _373  and  _374
REMARK  156  A    between atoms: _373  and  _376
REMARK  157  A    between atoms: _379  and  _381
REMARK  158  A    between atoms: _381  and  _382
REMARK  159  A    between atoms: _381  and  _384
REMARK  160  A    between atoms: _384  and  _385
REMARK  161  A    between atoms: _388  and  _390
REMARK  162  A    between atoms: _390  and  _391
REMARK  163  A    between atoms: _390  and  _393
REMARK  164  A    between atoms: _393  and  _394
REMARK  165  A    between atoms: _394  and  _395
REMARK  166  A    between atoms: _395  and  _396
REMARK  167  A    between atoms: _396  and  _397
REMARK  168  A    between atoms: _401  and  _403
REMARK  169  A    between atoms: _403  and  _404
REMARK  170  A    between atoms: _403  and  _406
REMARK  171  A    between atoms: _406  and  _407
REMARK  172  A    between atoms: _407  and  _408
REMARK  173  A    between atoms: _410  and  _412
REMARK  174  A    between atoms: _412  and  _413
REMARK  175  A    between atoms: _412  and  _415
REMARK  176  A    between atoms: _415  and  _416
REMARK  177  A    between atoms: _419  and  _421
REMARK  178  A    between atoms: _421  and  _422
REMARK  179  A    between atoms: _424  and  _426
REMARK  180  A    between atoms: _426  and  _427
REMARK  181  A    between atoms: _429  and  _431
REMARK  182  A    between atoms: _431  and  _432
REMARK  183  A    between atoms: _431  and  _434
REMARK  184  A    between atoms: _434  and  _435
REMARK  185  A    between atoms: _438  and  _440
REMARK  186  A    between atoms: _440  and  _441
REMARK  187  A    between atoms: _443  and  _445
REMARK  188  A    between atoms: _445  and  _446
REMARK  189  A    between atoms: _448  and  _450
REMARK  190  A    between atoms: _450  and  _451
REMARK  191  A    between atoms: _450  and  _453
REMARK  192  A    between atoms: _453  and  _454
REMARK  193  A    between atoms: _460  and  _462
REMARK  194  A    between atoms: _462  and  _463
REMARK  195  A    between atoms: _462  and  _465
REMARK  196  A    between atoms: _465  and  _466
REMARK  197  A    between atoms: _469  and  _471
REMARK  198  A    between atoms: _471  and  _472
REMARK  199  A    between atoms: _471  and  _474
REMARK  200  A    between atoms: _477  and  _479
REMARK  201  A    between atoms: _479  and  _480
REMARK  202  A    between atoms: _479  and  _482
REMARK  203  A    between atoms: _482  and  _483
REMARK  204  A    between atoms: _486  and  _488
REMARK  205  A    between atoms: _488  and  _489
REMARK  206  A    between atoms: _488  and  _491
REMARK  207  A    between atoms: _491  and  _492
REMARK  208  A    between atoms: _496  and  _497
REMARK  209  A    between atoms: _502  and  _504
REMARK  210  A    between atoms: _504  and  _505
REMARK  211  A    between atoms: _508  and  _510
REMARK  212  A    between atoms: _510  and  _511
REMARK  213  A    between atoms: _510  and  _513
REMARK  214  A    between atoms: _513  and  _514
REMARK  215  A    between atoms: _519  and  _521
REMARK  216  A    between atoms: _521  and  _522
REMARK  217  A    between atoms: _521  and  _524
REMARK  218  A    between atoms: _524  and  _525
REMARK  219  A    between atoms: _528  and  _530
REMARK  220  A    between atoms: _530  and  _531
REMARK  221  A    between atoms: _530  and  _533
REMARK  222  A    between atoms: _533  and  _534
REMARK  223  A    between atoms: _537  and  _539
REMARK  224  A    between atoms: _539  and  _540
REMARK  225  A    between atoms: _542  and  _544
REMARK  226  A    between atoms: _544  and  _545
REMARK  227  A    between atoms: _544  and  _547
REMARK  228  A    between atoms: _547  and  _548
REMARK  229  A    between atoms: _548  and  _549
REMARK  230  A    between atoms: _549  and  _550
REMARK  231  A    between atoms: _559  and  _561
REMARK  232  A    between atoms: _561  and  _562
REMARK  233  A    between atoms: _561  and  _564
REMARK  234  A    between atoms: _564  and  _565
REMARK                            x       y       z     vdW  Elec       q    Type
REMARK                         _______ _______ _______ _____ _____    ______ ____
ROOT
ATOM      1  O   HOH     1      21.958   8.920   6.390  0.00  0.00    +0.000 OA
ENDROOT
TORSDOF 0
REMARK  Name = ../refined-set-2016/1sdv/1sdv_pocket.pdb
REMARK  234 active torsions:
REMARK  status: ('A' for Active; 'I' for Inactive)
REMARK    1  A    between atoms: _1  and  _3
REMARK    2  A    between atoms: _3  and  _4
REMARK    3  A    between atoms: _3  and  _6
REMARK    4  A    between atoms: _6  and  _7
REMARK    5  A    between atoms: _7  and  _8
REMARK    6  A    between atoms: _8  and  _9
REMARK    7  A    between atoms: _18  and  _20
REMARK    8  A    between atoms: _20  and  _21
REMARK    9  A    between atoms: _20  and  _23
REMARK   10  A    between atoms: _23  and  _24
REMARK   11  A    between atoms: _27  and  _29
REMARK   12  A    between atoms: _29  and  _30
REMARK   13  A    between atoms: _29  and  _32
REMARK   14  A    between atoms: _32  and  _33
REMARK   15  A    between atoms: _36  and  _38
REMARK   16  A    between atoms: _38  and  _39
REMARK   17  A    between atoms: _38  and  _41
REMARK   18  A    between atoms: _41  and  _42
REMARK   19  A    between atoms: _45  and  _47
REMARK   20  A    between atoms: _47  and  _48
REMARK   21  A    between atoms: _47  and  _50
REMARK   22  A    between atoms: _50  and  _51
REMARK   23  A    between atoms: _54  and  _56
REMARK   24  A    between atoms: _56  and  _57
REMARK   25  A    between atoms: _56  and  _59
REMARK   26  A    between atoms: _59  and  _60
REMARK   27  A    between atoms: _63  and  _65
REMARK   28  A    between atoms: _65  and  _66
REMARK   29  A    between atoms: _68  and  _70
REMARK   30  A    between atoms: _70  and  _71
REMARK   31  A    between atoms: _74  and  _76
REMARK   32  A    between atoms: _76  and  _77
REMARK   33  A    between atoms: _76  and  _79
REMARK   34  A    between atoms: _79  and  _80
REMARK   35  A    between atoms: _83  and  _85
REMARK   36  A    between atoms: _85  and  _86
REMARK   37  A    between atoms: _85  and  _88
REMARK   38  A    between atoms: _88  and  _89
REMARK   39  A    between atoms: _92  and  _94
REMARK   40  A    between atoms: _94  and  _95
REMARK   41  A    between atoms: _94  and  _97
REMARK   42  A    between atoms: _97  and  _98
REMARK   43  A    between atoms: _101  and  _103
REMARK   44  A    between atoms: _103  and  _104
REMARK   45  A    between atoms: _103  and  _106
REMARK   46  A    between atoms: _109  and  _111
REMARK   47  A    between atoms: _111  and  _112
REMARK   48  A    between atoms: _111  and  _114
REMARK   49  A    between atoms: _114  and  _115
REMARK   50  A    between atoms: _115  and  _116
REMARK   51  A    between atoms: _116  and  _117
REMARK   52  A    between atoms: _117  and  _118
REMARK   53  A    between atoms: _122  and  _124
REMARK   54  A    between atoms: _124  and  _125
REMARK   55  A    between atoms: _124  and  _127
REMARK   56  A    between atoms: _127  and  _128
REMARK   57  A    between atoms: _128  and  _129
REMARK   58  A    between atoms: _131  and  _133
REMARK   59  A    between atoms: _133  and  _134
REMARK   60  A    between atoms: _133  and  _136
REMARK   61  A    between atoms: _136  and  _137
REMARK   62  A    between atoms: _140  and  _142
REMARK   63  A    between atoms: _142  and  _143
REMARK   64  A    between atoms: _145  and  _147
REMARK   65  A    between atoms: _147  and  _148
REMARK   66  A    between atoms: _150  and  _152
REMARK   67  A    between atoms: _152  and  _153
REMARK   68  A    between atoms: _152  and  _155
REMARK   69  A    between atoms: _155  and  _156
REMARK   70  A    between atoms: _159  and  _161
REMARK   71  A    between atoms: _161  and  _162
REMARK   72  A    between atoms: _164  and  _166
REMARK   73  A    between atoms: _166  and  _167
REMARK   74  A    between atoms: _169  and  _171
REMARK   75  A    between atoms: _171  and  _172
REMARK   76  A    between atoms: _171  and  _174
REMARK   77  A    between atoms: _174  and  _175
REMARK   78  A    between atoms: _181  and  _183
REMARK   79  A    between atoms: _183  and  _184
REMARK   80  A    between atoms: _183  and  _186
REMARK   81  A    between atoms: _186  and  _187
REMARK   82  A    between atoms: _190  and  _192
REMARK   83  A    between atoms: _192  and  _193
REMARK   84  A    between atoms: _192  and  _195
REMARK   85  A    between atoms: _198  and  _200
REMARK   86  A    between atoms: _200  and  _201
REMARK   87  A    between atoms: _200  and  _203
REMARK   88  A    between atoms: _203  and  _204
REMARK   89  A    between atoms: _207  and  _209
REMARK   90  A    between atoms: _209  and  _210
REMARK   91  A    between atoms: _209  and  _212
REMARK   92  A    between atoms: _212  and  _213
REMARK   93  A    between atoms: _217  and  _218
REMARK   94  A    between atoms: _223  and  _225
REMARK   95  A    between atoms: _225  and  _226
REMARK   96  A    between atoms: _229  and  _231
REMARK   97  A    between atoms: _231  and  _232
REMARK   98  A    between atoms: _231  and  _234
REMARK   99  A    between atoms: _234  and  _235
REMARK  100  A    between atoms: _240  and  _242
REMARK  101  A    between atoms: _242  and  _243
REMARK  102  A    between atoms: _242  and  _245
REMARK  103  A    between atoms: _245  and  _246
REMARK  104  A    between atoms: _249  and  _251
REMARK  105  A    between atoms: _251  and  _252
REMARK  106  A    between atoms: _251  and  _254
REMARK  107  A    between atoms: _254  and  _255
REMARK  108  A    between atoms: _258  and  _260
REMARK  109  A    between atoms: _260  and  _261
REMARK  110  A    between atoms: _263  and  _265
REMARK  111  A    between atoms: _265  and  _266
REMARK  112  A    between atoms: _265  and  _268
REMARK  113  A    between atoms: _268  and  _269
REMARK  114  A    between atoms: _269  and  _270
REMARK  115  A    between atoms: _270  and  _271
REMARK  116  A    between atoms: _280  and  _282
REMARK  117  A    between atoms: _282  and  _283
REMARK  118  A    between atoms: _282  and  _285
REMARK  119  A    between atoms: _285  and  _286
REMARK  120  A    between atoms: _286  and  _287
REMARK  121  A    between atoms: _287  and  _288
REMARK  122  A    between atoms: _297  and  _299
REMARK  123  A    between atoms: _299  and  _300
REMARK  124  A    between atoms: _299  and  _302
REMARK  125  A    between atoms: _302  and  _303
REMARK  126  A    between atoms: _306  and  _308
REMARK  127  A    between atoms: _308  and  _309
REMARK  128  A    between atoms: _308  and  _311
REMARK  129  A    between atoms: _311  and  _312
REMARK  130  A    between atoms: _315  and  _317
REMARK  131  A    between atoms: _317  and  _318
REMARK  132  A    between atoms: _317  and  _320
REMARK  133  A    between atoms: _320  and  _321
REMARK  134  A    between atoms: _324  and  _326
REMARK  135  A    between atoms: _326  and  _327
REMARK  136  A    between atoms: _326  and  _329
REMARK  137  A    between atoms: _329  and  _330
REMARK  138  A    between atoms: _333  and  _335
REMARK  139  A    between atoms: _335  and  _336
REMARK  140  A    between atoms: _338  and  _340
REMARK  141  A    between atoms: _340  and  _341
REMARK  142  A    between atoms: _344  and  _346
REMARK  143  A    between atoms: _346  and  _347
REMARK  144  A    between atoms: _346  and  _349
REMARK  145  A    between atoms: _349  and  _350
REMARK  146  A    between atoms: _353  and  _355
REMARK  147  A    between atoms: _355  and  _356
REMARK  148  A    between atoms: _355  and  _358
REMARK  149  A    between atoms: _358  and  _359
REMARK  150  A    between atoms: _362  and  _364
REMARK  151  A    between atoms: _364  and  _365
REMARK  152  A    between atoms: _364  and  _367
REMARK  153  A    between atoms: _367  and  _368
REMARK  154  A    between atoms: _371  and  _373
REMARK  155  A    between atoms: _373  and  _374
REMARK  156  A    between atoms: _373  and  _376
REMARK  157  A    between atoms: _379  and  _381
REMARK  158  A    between atoms: _381  and  _382
REMARK  159  A    between atoms: _381  and  _384
REMARK  160  A    between atoms: _384  and  _385
REMARK  161  A    between atoms: _388  and  _390
REMARK  162  A    between atoms: _390  and  _391
REMARK  163  A    between atoms: _390  and  _393
REMARK  164  A    between atoms: _393  and  _394
REMARK  165  A    between atoms: _394  and  _395
REMARK  166  A    between atoms: _395  and  _396
REMARK  167  A    between atoms: _396  and  _397
REMARK  168  A    between atoms: _401  and  _403
REMARK  169  A    between atoms: _403  and  _404
REMARK  170  A    between atoms: _403  and  _406
REMARK  171  A    between atoms: _406  and  _407
REMARK  172  A    between atoms: _407  and  _408
REMARK  173  A    between atoms: _410  and  _412
REMARK  174  A    between atoms: _412  and  _413
REMARK  175  A    between atoms: _412  and  _415
REMARK  176  A    between atoms: _415  and  _416
REMARK  177  A    between atoms: _419  and  _421
REMARK  178  A    between atoms: _421  and  _422
REMARK  179  A    between atoms: _424  and  _426
REMARK  180  A    between atoms: _426  and  _427
REMARK  181  A    between atoms: _429  and  _431
REMARK  182  A    between atoms: _431  and  _432
REMARK  183  A    between atoms: _431  and  _434
REMARK  184  A    between atoms: _434  and  _435
REMARK  185  A    between atoms: _438  and  _440
REMARK  186  A    between atoms: _440  and  _441
REMARK  187  A    between atoms: _443  and  _445
REMARK  188  A    between atoms: _445  and  _446
REMARK  189  A    between atoms: _448  and  _450
REMARK  190  A    between atoms: _450  and  _451
REMARK  191  A    between atoms: _450  and  _453
REMARK  192  A    between atoms: _453  and  _454
REMARK  193  A    between atoms: _460  and  _462
REMARK  194  A    between atoms: _462  and  _463
REMARK  195  A    between atoms: _462  and  _465
REMARK  196  A    between atoms: _465  and  _466
REMARK  197  A    between atoms: _469  and  _471
REMARK  198  A    between atoms: _471  and  _472
REMARK  199  A    between atoms: _471  and  _474
REMARK  200  A    between atoms: _477  and  _479
REMARK  201  A    between atoms: _479  and  _480
REMARK  202  A    between atoms: _479  and  _482
REMARK  203  A    between atoms: _482  and  _483
REMARK  204  A    between atoms: _486  and  _488
REMARK  205  A    between atoms: _488  and  _489
REMARK  206  A    between atoms: _488  and  _491
REMARK  207  A    between atoms: _491  and  _492
REMARK  208  A    between atoms: _496  and  _497
REMARK  209  A    between atoms: _502  and  _504
REMARK  210  A    between atoms: _504  and  _505
REMARK  211  A    between atoms: _508  and  _510
REMARK  212  A    between atoms: _510  and  _511
REMARK  213  A    between atoms: _510  and  _513
REMARK  214  A    between atoms: _513  and  _514
REMARK  215  A    between atoms: _519  and  _521
REMARK  216  A    between atoms: _521  and  _522
REMARK  217  A    between atoms: _521  and  _524
REMARK  218  A    between atoms: _524  and  _525
REMARK  219  A    between atoms: _528  and  _530
REMARK  220  A    between atoms: _530  and  _531
REMARK  221  A    between atoms: _530  and  _533
REMARK  222  A    between atoms: _533  and  _534
REMARK  223  A    between atoms: _537  and  _539
REMARK  224  A    between atoms: _539  and  _540
REMARK  225  A    between atoms: _542  and  _544
REMARK  226  A    between atoms: _544  and  _545
REMARK  227  A    between atoms: _544  and  _547
REMARK  228  A    between atoms: _547  and  _548
REMARK  229  A    between atoms: _548  and  _549
REMARK  230  A    between atoms: _549  and  _550
REMARK  231  A    between atoms: _559  and  _561
REMARK  232  A    between atoms: _561  and  _562
REMARK  233  A    between atoms: _561  and  _564
REMARK  234  A    between atoms: _564  and  _565
REMARK                            x       y       z     vdW  Elec       q    Type
REMARK                         _______ _______ _______ _____ _____    ______ ____
ROOT
ATOM      1  O   HOH     1      14.302  11.049   6.361  0.00  0.00    +0.000 OA
ENDROOT
TORSDOF 0
REMARK  Name = ../refined-set-2016/1sdv/1sdv_pocket.pdb
REMARK  234 active torsions:
REMARK  status: ('A' for Active; 'I' for Inactive)
REMARK    1  A    between atoms: _1  and  _3
REMARK    2  A    between atoms: _3  and  _4
REMARK    3  A    between atoms: _3  and  _6
REMARK    4  A    between atoms: _6  and  _7
REMARK    5  A    between atoms: _7  and  _8
REMARK    6  A    between atoms: _8  and  _9
REMARK    7  A    between atoms: _18  and  _20
REMARK    8  A    between atoms: _20  and  _21
REMARK    9  A    between atoms: _20  and  _23
REMARK   10  A    between atoms: _23  and  _24
REMARK   11  A    between atoms: _27  and  _29
REMARK   12  A    between atoms: _29  and  _30
REMARK   13  A    between atoms: _29  and  _32
REMARK   14  A    between atoms: _32  and  _33
REMARK   15  A    between atoms: _36  and  _38
REMARK   16  A    between atoms: _38  and  _39
REMARK   17  A    between atoms: _38  and  _41
REMARK   18  A    between atoms: _41  and  _42
REMARK   19  A    between atoms: _45  and  _47
REMARK   20  A    between atoms: _47  and  _48
REMARK   21  A    between atoms: _47  and  _50
REMARK   22  A    between atoms: _50  and  _51
REMARK   23  A    between atoms: _54  and  _56
REMARK   24  A    between atoms: _56  and  _57
REMARK   25  A    between atoms: _56  and  _59
REMARK   26  A    between atoms: _59  and  _60
REMARK   27  A    between atoms: _63  and  _65
REMARK   28  A    between atoms: _65  and  _66
REMARK   29  A    between atoms: _68  and  _70
REMARK   30  A    between atoms: _70  and  _71
REMARK   31  A    between atoms: _74  and  _76
REMARK   32  A    between atoms: _76  and  _77
REMARK   33  A    between atoms: _76  and  _79
REMARK   34  A    between atoms: _79  and  _80
REMARK   35  A    between atoms: _83  and  _85
REMARK   36  A    between atoms: _85  and  _86
REMARK   37  A    between atoms: _85  and  _88
REMARK   38  A    between atoms: _88  and  _89
REMARK   39  A    between atoms: _92  and  _94
REMARK   40  A    between atoms: _94  and  _95
REMARK   41  A    between atoms: _94  and  _97
REMARK   42  A    between atoms: _97  and  _98
REMARK   43  A    between atoms: _101  and  _103
REMARK   44  A    between atoms: _103  and  _104
REMARK   45  A    between atoms: _103  and  _106
REMARK   46  A    between atoms: _109  and  _111
REMARK   47  A    between atoms: _111  and  _112
REMARK   48  A    between atoms: _111  and  _114
REMARK   49  A    between atoms: _114  and  _115
REMARK   50  A    between atoms: _115  and  _116
REMARK   51  A    between atoms: _116  and  _117
REMARK   52  A    between atoms: _117  and  _118
REMARK   53  A    between atoms: _122  and  _124
REMARK   54  A    between atoms: _124  and  _125
REMARK   55  A    between atoms: _124  and  _127
REMARK   56  A    between atoms: _127  and  _128
REMARK   57  A    between atoms: _128  and  _129
REMARK   58  A    between atoms: _131  and  _133
REMARK   59  A    between atoms: _133  and  _134
REMARK   60  A    between atoms: _133  and  _136
REMARK   61  A    between atoms: _136  and  _137
REMARK   62  A    between atoms: _140  and  _142
REMARK   63  A    between atoms: _142  and  _143
REMARK   64  A    between atoms: _145  and  _147
REMARK   65  A    between atoms: _147  and  _148
REMARK   66  A    between atoms: _150  and  _152
REMARK   67  A    between atoms: _152  and  _153
REMARK   68  A    between atoms: _152  and  _155
REMARK   69  A    between atoms: _155  and  _156
REMARK   70  A    between atoms: _159  and  _161
REMARK   71  A    between atoms: _161  and  _162
REMARK   72  A    between atoms: _164  and  _166
REMARK   73  A    between atoms: _166  and  _167
REMARK   74  A    between atoms: _169  and  _171
REMARK   75  A    between atoms: _171  and  _172
REMARK   76  A    between atoms: _171  and  _174
REMARK   77  A    between atoms: _174  and  _175
REMARK   78  A    between atoms: _181  and  _183
REMARK   79  A    between atoms: _183  and  _184
REMARK   80  A    between atoms: _183  and  _186
REMARK   81  A    between atoms: _186  and  _187
REMARK   82  A    between atoms: _190  and  _192
REMARK   83  A    between atoms: _192  and  _193
REMARK   84  A    between atoms: _192  and  _195
REMARK   85  A    between atoms: _198  and  _200
REMARK   86  A    between atoms: _200  and  _201
REMARK   87  A    between atoms: _200  and  _203
REMARK   88  A    between atoms: _203  and  _204
REMARK   89  A    between atoms: _207  and  _209
REMARK   90  A    between atoms: _209  and  _210
REMARK   91  A    between atoms: _209  and  _212
REMARK   92  A    between atoms: _212  and  _213
REMARK   93  A    between atoms: _217  and  _218
REMARK   94  A    between atoms: _223  and  _225
REMARK   95  A    between atoms: _225  and  _226
REMARK   96  A    between atoms: _229  and  _231
REMARK   97  A    between atoms: _231  and  _232
REMARK   98  A    between atoms: _231  and  _234
REMARK   99  A    between atoms: _234  and  _235
REMARK  100  A    between atoms: _240  and  _242
REMARK  101  A    between atoms: _242  and  _243
REMARK  102  A    between atoms: _242  and  _245
REMARK  103  A    between atoms: _245  and  _246
REMARK  104  A    between atoms: _249  and  _251
REMARK  105  A    between atoms: _251  and  _252
REMARK  106  A    between atoms: _251  and  _254
REMARK  107  A    between atoms: _254  and  _255
REMARK  108  A    between atoms: _258  and  _260
REMARK  109  A    between atoms: _260  and  _261
REMARK  110  A    between atoms: _263  and  _265
REMARK  111  A    between atoms: _265  and  _266
REMARK  112  A    between atoms: _265  and  _268
REMARK  113  A    between atoms: _268  and  _269
REMARK  114  A    between atoms: _269  and  _270
REMARK  115  A    between atoms: _270  and  _271
REMARK  116  A    between atoms: _280  and  _282
REMARK  117  A    between atoms: _282  and  _283
REMARK  118  A    between atoms: _282  and  _285
REMARK  119  A    between atoms: _285  and  _286
REMARK  120  A    between atoms: _286  and  _287
REMARK  121  A    between atoms: _287  and  _288
REMARK  122  A    between atoms: _297  and  _299
REMARK  123  A    between atoms: _299  and  _300
REMARK  124  A    between atoms: _299  and  _302
REMARK  125  A    between atoms: _302  and  _303
REMARK  126  A    between atoms: _306  and  _308
REMARK  127  A    between atoms: _308  and  _309
REMARK  128  A    between atoms: _308  and  _311
REMARK  129  A    between atoms: _311  and  _312
REMARK  130  A    between atoms: _315  and  _317
REMARK  131  A    between atoms: _317  and  _318
REMARK  132  A    between atoms: _317  and  _320
REMARK  133  A    between atoms: _320  and  _321
REMARK  134  A    between atoms: _324  and  _326
REMARK  135  A    between atoms: _326  and  _327
REMARK  136  A    between atoms: _326  and  _329
REMARK  137  A    between atoms: _329  and  _330
REMARK  138  A    between atoms: _333  and  _335
REMARK  139  A    between atoms: _335  and  _336
REMARK  140  A    between atoms: _338  and  _340
REMARK  141  A    between atoms: _340  and  _341
REMARK  142  A    between atoms: _344  and  _346
REMARK  143  A    between atoms: _346  and  _347
REMARK  144  A    between atoms: _346  and  _349
REMARK  145  A    between atoms: _349  and  _350
REMARK  146  A    between atoms: _353  and  _355
REMARK  147  A    between atoms: _355  and  _356
REMARK  148  A    between atoms: _355  and  _358
REMARK  149  A    between atoms: _358  and  _359
REMARK  150  A    between atoms: _362  and  _364
REMARK  151  A    between atoms: _364  and  _365
REMARK  152  A    between atoms: _364  and  _367
REMARK  153  A    between atoms: _367  and  _368
REMARK  154  A    between atoms: _371  and  _373
REMARK  155  A    between atoms: _373  and  _374
REMARK  156  A    between atoms: _373  and  _376
REMARK  157  A    between atoms: _379  and  _381
REMARK  158  A    between atoms: _381  and  _382
REMARK  159  A    between atoms: _381  and  _384
REMARK  160  A    between atoms: _384  and  _385
REMARK  161  A    between atoms: _388  and  _390
REMARK  162  A    between atoms: _390  and  _391
REMARK  163  A    between atoms: _390  and  _393
REMARK  164  A    between atoms: _393  and  _394
REMARK  165  A    between atoms: _394  and  _395
REMARK  166  A    between atoms: _395  and  _396
REMARK  167  A    between atoms: _396  and  _397
REMARK  168  A    between atoms: _401  and  _403
REMARK  169  A    between atoms: _403  and  _404
REMARK  170  A    between atoms: _403  and  _406
REMARK  171  A    between atoms: _406  and  _407
REMARK  172  A    between atoms: _407  and  _408
REMARK  173  A    between atoms: _410  and  _412
REMARK  174  A    between atoms: _412  and  _413
REMARK  175  A    between atoms: _412  and  _415
REMARK  176  A    between atoms: _415  and  _416
REMARK  177  A    between atoms: _419  and  _421
REMARK  178  A    between atoms: _421  and  _422
REMARK  179  A    between atoms: _424  and  _426
REMARK  180  A    between atoms: _426  and  _427
REMARK  181  A    between atoms: _429  and  _431
REMARK  182  A    between atoms: _431  and  _432
REMARK  183  A    between atoms: _431  and  _434
REMARK  184  A    between atoms: _434  and  _435
REMARK  185  A    between atoms: _438  and  _440
REMARK  186  A    between atoms: _440  and  _441
REMARK  187  A    between atoms: _443  and  _445
REMARK  188  A    between atoms: _445  and  _446
REMARK  189  A    between atoms: _448  and  _450
REMARK  190  A    between atoms: _450  and  _451
REMARK  191  A    between atoms: _450  and  _453
REMARK  192  A    between atoms: _453  and  _454
REMARK  193  A    between atoms: _460  and  _462
REMARK  194  A    between atoms: _462  and  _463
REMARK  195  A    between atoms: _462  and  _465
REMARK  196  A    between atoms: _465  and  _466
REMARK  197  A    between atoms: _469  and  _471
REMARK  198  A    between atoms: _471  and  _472
REMARK  199  A    between atoms: _471  and  _474
REMARK  200  A    between atoms: _477  and  _479
REMARK  201  A    between atoms: _479  and  _480
REMARK  202  A    between atoms: _479  and  _482
REMARK  203  A    between atoms: _482  and  _483
REMARK  204  A    between atoms: _486  and  _488
REMARK  205  A    between atoms: _488  and  _489
REMARK  206  A    between atoms: _488  and  _491
REMARK  207  A    between atoms: _491  and  _492
REMARK  208  A    between atoms: _496  and  _497
REMARK  209  A    between atoms: _502  and  _504
REMARK  210  A    between atoms: _504  and  _505
REMARK  211  A    between atoms: _508  and  _510
REMARK  212  A    between atoms: _510  and  _511
REMARK  213  A    between atoms: _510  and  _513
REMARK  214  A    between atoms: _513  and  _514
REMARK  215  A    between atoms: _519  and  _521
REMARK  216  A    between atoms: _521  and  _522
REMARK  217  A    between atoms: _521  and  _524
REMARK  218  A    between atoms: _524  and  _525
REMARK  219  A    between atoms: _528  and  _530
REMARK  220  A    between atoms: _530  and  _531
REMARK  221  A    between atoms: _530  and  _533
REMARK  222  A    between atoms: _533  and  _534
REMARK  223  A    between atoms: _537  and  _539
REMARK  224  A    between atoms: _539  and  _540
REMARK  225  A    between atoms: _542  and  _544
REMARK  226  A    between atoms: _544  and  _545
REMARK  227  A    between atoms: _544  and  _547
REMARK  228  A    between atoms: _547  and  _548
REMARK  229  A    between atoms: _548  and  _549
REMARK  230  A    between atoms: _549  and  _550
REMARK  231  A    between atoms: _559  and  _561
REMARK  232  A    between atoms: _561  and  _562
REMARK  233  A    between atoms: _561  and  _564
REMARK  234  A    between atoms: _564  and  _565
REMARK                            x       y       z     vdW  Elec       q    Type
REMARK                         _______ _______ _______ _____ _____    ______ ____
ROOT
ATOM      1  O   HOH     1      15.454  15.739  11.181  0.00  0.00    +0.000 OA
ENDROOT
TORSDOF 0
REMARK  Name = ../refined-set-2016/1sdv/1sdv_pocket.pdb
REMARK  234 active torsions:
REMARK  status: ('A' for Active; 'I' for Inactive)
REMARK    1  A    between atoms: _1  and  _3
REMARK    2  A    between atoms: _3  and  _4
REMARK    3  A    between atoms: _3  and  _6
REMARK    4  A    between atoms: _6  and  _7
REMARK    5  A    between atoms: _7  and  _8
REMARK    6  A    between atoms: _8  and  _9
REMARK    7  A    between atoms: _18  and  _20
REMARK    8  A    between atoms: _20  and  _21
REMARK    9  A    between atoms: _20  and  _23
REMARK   10  A    between atoms: _23  and  _24
REMARK   11  A    between atoms: _27  and  _29
REMARK   12  A    between atoms: _29  and  _30
REMARK   13  A    between atoms: _29  and  _32
REMARK   14  A    between atoms: _32  and  _33
REMARK   15  A    between atoms: _36  and  _38
REMARK   16  A    between atoms: _38  and  _39
REMARK   17  A    between atoms: _38  and  _41
REMARK   18  A    between atoms: _41  and  _42
REMARK   19  A    between atoms: _45  and  _47
REMARK   20  A    between atoms: _47  and  _48
REMARK   21  A    between atoms: _47  and  _50
REMARK   22  A    between atoms: _50  and  _51
REMARK   23  A    between atoms: _54  and  _56
REMARK   24  A    between atoms: _56  and  _57
REMARK   25  A    between atoms: _56  and  _59
REMARK   26  A    between atoms: _59  and  _60
REMARK   27  A    between atoms: _63  and  _65
REMARK   28  A    between atoms: _65  and  _66
REMARK   29  A    between atoms: _68  and  _70
REMARK   30  A    between atoms: _70  and  _71
REMARK   31  A    between atoms: _74  and  _76
REMARK   32  A    between atoms: _76  and  _77
REMARK   33  A    between atoms: _76  and  _79
REMARK   34  A    between atoms: _79  and  _80
REMARK   35  A    between atoms: _83  and  _85
REMARK   36  A    between atoms: _85  and  _86
REMARK   37  A    between atoms: _85  and  _88
REMARK   38  A    between atoms: _88  and  _89
REMARK   39  A    between atoms: _92  and  _94
REMARK   40  A    between atoms: _94  and  _95
REMARK   41  A    between atoms: _94  and  _97
REMARK   42  A    between atoms: _97  and  _98
REMARK   43  A    between atoms: _101  and  _103
REMARK   44  A    between atoms: _103  and  _104
REMARK   45  A    between atoms: _103  and  _106
REMARK   46  A    between atoms: _109  and  _111
REMARK   47  A    between atoms: _111  and  _112
REMARK   48  A    between atoms: _111  and  _114
REMARK   49  A    between atoms: _114  and  _115
REMARK   50  A    between atoms: _115  and  _116
REMARK   51  A    between atoms: _116  and  _117
REMARK   52  A    between atoms: _117  and  _118
REMARK   53  A    between atoms: _122  and  _124
REMARK   54  A    between atoms: _124  and  _125
REMARK   55  A    between atoms: _124  and  _127
REMARK   56  A    between atoms: _127  and  _128
REMARK   57  A    between atoms: _128  and  _129
REMARK   58  A    between atoms: _131  and  _133
REMARK   59  A    between atoms: _133  and  _134
REMARK   60  A    between atoms: _133  and  _136
REMARK   61  A    between atoms: _136  and  _137
REMARK   62  A    between atoms: _140  and  _142
REMARK   63  A    between atoms: _142  and  _143
REMARK   64  A    between atoms: _145  and  _147
REMARK   65  A    between atoms: _147  and  _148
REMARK   66  A    between atoms: _150  and  _152
REMARK   67  A    between atoms: _152  and  _153
REMARK   68  A    between atoms: _152  and  _155
REMARK   69  A    between atoms: _155  and  _156
REMARK   70  A    between atoms: _159  and  _161
REMARK   71  A    between atoms: _161  and  _162
REMARK   72  A    between atoms: _164  and  _166
REMARK   73  A    between atoms: _166  and  _167
REMARK   74  A    between atoms: _169  and  _171
REMARK   75  A    between atoms: _171  and  _172
REMARK   76  A    between atoms: _171  and  _174
REMARK   77  A    between atoms: _174  and  _175
REMARK   78  A    between atoms: _181  and  _183
REMARK   79  A    between atoms: _183  and  _184
REMARK   80  A    between atoms: _183  and  _186
REMARK   81  A    between atoms: _186  and  _187
REMARK   82  A    between atoms: _190  and  _192
REMARK   83  A    between atoms: _192  and  _193
REMARK   84  A    between atoms: _192  and  _195
REMARK   85  A    between atoms: _198  and  _200
REMARK   86  A    between atoms: _200  and  _201
REMARK   87  A    between atoms: _200  and  _203
REMARK   88  A    between atoms: _203  and  _204
REMARK   89  A    between atoms: _207  and  _209
REMARK   90  A    between atoms: _209  and  _210
REMARK   91  A    between atoms: _209  and  _212
REMARK   92  A    between atoms: _212  and  _213
REMARK   93  A    between atoms: _217  and  _218
REMARK   94  A    between atoms: _223  and  _225
REMARK   95  A    between atoms: _225  and  _226
REMARK   96  A    between atoms: _229  and  _231
REMARK   97  A    between atoms: _231  and  _232
REMARK   98  A    between atoms: _231  and  _234
REMARK   99  A    between atoms: _234  and  _235
REMARK  100  A    between atoms: _240  and  _242
REMARK  101  A    between atoms: _242  and  _243
REMARK  102  A    between atoms: _242  and  _245
REMARK  103  A    between atoms: _245  and  _246
REMARK  104  A    between atoms: _249  and  _251
REMARK  105  A    between atoms: _251  and  _252
REMARK  106  A    between atoms: _251  and  _254
REMARK  107  A    between atoms: _254  and  _255
REMARK  108  A    between atoms: _258  and  _260
REMARK  109  A    between atoms: _260  and  _261
REMARK  110  A    between atoms: _263  and  _265
REMARK  111  A    between atoms: _265  and  _266
REMARK  112  A    between atoms: _265  and  _268
REMARK  113  A    between atoms: _268  and  _269
REMARK  114  A    between atoms: _269  and  _270
REMARK  115  A    between atoms: _270  and  _271
REMARK  116  A    between atoms: _280  and  _282
REMARK  117  A    between atoms: _282  and  _283
REMARK  118  A    between atoms: _282  and  _285
REMARK  119  A    between atoms: _285  and  _286
REMARK  120  A    between atoms: _286  and  _287
REMARK  121  A    between atoms: _287  and  _288
REMARK  122  A    between atoms: _297  and  _299
REMARK  123  A    between atoms: _299  and  _300
REMARK  124  A    between atoms: _299  and  _302
REMARK  125  A    between atoms: _302  and  _303
REMARK  126  A    between atoms: _306  and  _308
REMARK  127  A    between atoms: _308  and  _309
REMARK  128  A    between atoms: _308  and  _311
REMARK  129  A    between atoms: _311  and  _312
REMARK  130  A    between atoms: _315  and  _317
REMARK  131  A    between atoms: _317  and  _318
REMARK  132  A    between atoms: _317  and  _320
REMARK  133  A    between atoms: _320  and  _321
REMARK  134  A    between atoms: _324  and  _326
REMARK  135  A    between atoms: _326  and  _327
REMARK  136  A    between atoms: _326  and  _329
REMARK  137  A    between atoms: _329  and  _330
REMARK  138  A    between atoms: _333  and  _335
REMARK  139  A    between atoms: _335  and  _336
REMARK  140  A    between atoms: _338  and  _340
REMARK  141  A    between atoms: _340  and  _341
REMARK  142  A    between atoms: _344  and  _346
REMARK  143  A    between atoms: _346  and  _347
REMARK  144  A    between atoms: _346  and  _349
REMARK  145  A    between atoms: _349  and  _350
REMARK  146  A    between atoms: _353  and  _355
REMARK  147  A    between atoms: _355  and  _356
REMARK  148  A    between atoms: _355  and  _358
REMARK  149  A    between atoms: _358  and  _359
REMARK  150  A    between atoms: _362  and  _364
REMARK  151  A    between atoms: _364  and  _365
REMARK  152  A    between atoms: _364  and  _367
REMARK  153  A    between atoms: _367  and  _368
REMARK  154  A    between atoms: _371  and  _373
REMARK  155  A    between atoms: _373  and  _374
REMARK  156  A    between atoms: _373  and  _376
REMARK  157  A    between atoms: _379  and  _381
REMARK  158  A    between atoms: _381  and  _382
REMARK  159  A    between atoms: _381  and  _384
REMARK  160  A    between atoms: _384  and  _385
REMARK  161  A    between atoms: _388  and  _390
REMARK  162  A    between atoms: _390  and  _391
REMARK  163  A    between atoms: _390  and  _393
REMARK  164  A    between atoms: _393  and  _394
REMARK  165  A    between atoms: _394  and  _395
REMARK  166  A    between atoms: _395  and  _396
REMARK  167  A    between atoms: _396  and  _397
REMARK  168  A    between atoms: _401  and  _403
REMARK  169  A    between atoms: _403  and  _404
REMARK  170  A    between atoms: _403  and  _406
REMARK  171  A    between atoms: _406  and  _407
REMARK  172  A    between atoms: _407  and  _408
REMARK  173  A    between atoms: _410  and  _412
REMARK  174  A    between atoms: _412  and  _413
REMARK  175  A    between atoms: _412  and  _415
REMARK  176  A    between atoms: _415  and  _416
REMARK  177  A    between atoms: _419  and  _421
REMARK  178  A    between atoms: _421  and  _422
REMARK  179  A    between atoms: _424  and  _426
REMARK  180  A    between atoms: _426  and  _427
REMARK  181  A    between atoms: _429  and  _431
REMARK  182  A    between atoms: _431  and  _432
REMARK  183  A    between atoms: _431  and  _434
REMARK  184  A    between atoms: _434  and  _435
REMARK  185  A    between atoms: _438  and  _440
REMARK  186  A    between atoms: _440  and  _441
REMARK  187  A    between atoms: _443  and  _445
REMARK  188  A    between atoms: _445  and  _446
REMARK  189  A    between atoms: _448  and  _450
REMARK  190  A    between atoms: _450  and  _451
REMARK  191  A    between atoms: _450  and  _453
REMARK  192  A    between atoms: _453  and  _454
REMARK  193  A    between atoms: _460  and  _462
REMARK  194  A    between atoms: _462  and  _463
REMARK  195  A    between atoms: _462  and  _465
REMARK  196  A    between atoms: _465  and  _466
REMARK  197  A    between atoms: _469  and  _471
REMARK  198  A    between atoms: _471  and  _472
REMARK  199  A    between atoms: _471  and  _474
REMARK  200  A    between atoms: _477  and  _479
REMARK  201  A    between atoms: _479  and  _480
REMARK  202  A    between atoms: _479  and  _482
REMARK  203  A    between atoms: _482  and  _483
REMARK  204  A    between atoms: _486  and  _488
REMARK  205  A    between atoms: _488  and  _489
REMARK  206  A    between atoms: _488  and  _491
REMARK  207  A    between atoms: _491  and  _492
REMARK  208  A    between atoms: _496  and  _497
REMARK  209  A    between atoms: _502  and  _504
REMARK  210  A    between atoms: _504  and  _505
REMARK  211  A    between atoms: _508  and  _510
REMARK  212  A    between atoms: _510  and  _511
REMARK  213  A    between atoms: _510  and  _513
REMARK  214  A    between atoms: _513  and  _514
REMARK  215  A    between atoms: _519  and  _521
REMARK  216  A    between atoms: _521  and  _522
REMARK  217  A    between atoms: _521  and  _524
REMARK  218  A    between atoms: _524  and  _525
REMARK  219  A    between atoms: _528  and  _530
REMARK  220  A    between atoms: _530  and  _531
REMARK  221  A    between atoms: _530  and  _533
REMARK  222  A    between atoms: _533  and  _534
REMARK  223  A    between atoms: _537  and  _539
REMARK  224  A    between atoms: _539  and  _540
REMARK  225  A    between atoms: _542  and  _544
REMARK  226  A    between atoms: _544  and  _545
REMARK  227  A    between atoms: _544  and  _547
REMARK  228  A    between atoms: _547  and  _548
REMARK  229  A    between atoms: _548  and  _549
REMARK  230  A    between atoms: _549  and  _550
REMARK  231  A    between atoms: _559  and  _561
REMARK  232  A    between atoms: _561  and  _562
REMARK  233  A    between atoms: _561  and  _564
REMARK  234  A    between atoms: _564  and  _565
REMARK                            x       y       z     vdW  Elec       q    Type
REMARK                         _______ _______ _______ _____ _____    ______ ____
ROOT
ATOM      1  O   HOH     1      15.862   6.749  -2.301  0.00  0.00    +0.000 OA
ENDROOT
TORSDOF 0
REMARK  Name = ../refined-set-2016/1sdv/1sdv_pocket.pdb
REMARK  234 active torsions:
REMARK  status: ('A' for Active; 'I' for Inactive)
REMARK    1  A    between atoms: _1  and  _3
REMARK    2  A    between atoms: _3  and  _4
REMARK    3  A    between atoms: _3  and  _6
REMARK    4  A    between atoms: _6  and  _7
REMARK    5  A    between atoms: _7  and  _8
REMARK    6  A    between atoms: _8  and  _9
REMARK    7  A    between atoms: _18  and  _20
REMARK    8  A    between atoms: _20  and  _21
REMARK    9  A    between atoms: _20  and  _23
REMARK   10  A    between atoms: _23  and  _24
REMARK   11  A    between atoms: _27  and  _29
REMARK   12  A    between atoms: _29  and  _30
REMARK   13  A    between atoms: _29  and  _32
REMARK   14  A    between atoms: _32  and  _33
REMARK   15  A    between atoms: _36  and  _38
REMARK   16  A    between atoms: _38  and  _39
REMARK   17  A    between atoms: _38  and  _41
REMARK   18  A    between atoms: _41  and  _42
REMARK   19  A    between atoms: _45  and  _47
REMARK   20  A    between atoms: _47  and  _48
REMARK   21  A    between atoms: _47  and  _50
REMARK   22  A    between atoms: _50  and  _51
REMARK   23  A    between atoms: _54  and  _56
REMARK   24  A    between atoms: _56  and  _57
REMARK   25  A    between atoms: _56  and  _59
REMARK   26  A    between atoms: _59  and  _60
REMARK   27  A    between atoms: _63  and  _65
REMARK   28  A    between atoms: _65  and  _66
REMARK   29  A    between atoms: _68  and  _70
REMARK   30  A    between atoms: _70  and  _71
REMARK   31  A    between atoms: _74  and  _76
REMARK   32  A    between atoms: _76  and  _77
REMARK   33  A    between atoms: _76  and  _79
REMARK   34  A    between atoms: _79  and  _80
REMARK   35  A    between atoms: _83  and  _85
REMARK   36  A    between atoms: _85  and  _86
REMARK   37  A    between atoms: _85  and  _88
REMARK   38  A    between atoms: _88  and  _89
REMARK   39  A    between atoms: _92  and  _94
REMARK   40  A    between atoms: _94  and  _95
REMARK   41  A    between atoms: _94  and  _97
REMARK   42  A    between atoms: _97  and  _98
REMARK   43  A    between atoms: _101  and  _103
REMARK   44  A    between atoms: _103  and  _104
REMARK   45  A    between atoms: _103  and  _106
REMARK   46  A    between atoms: _109  and  _111
REMARK   47  A    between atoms: _111  and  _112
REMARK   48  A    between atoms: _111  and  _114
REMARK   49  A    between atoms: _114  and  _115
REMARK   50  A    between atoms: _115  and  _116
REMARK   51  A    between atoms: _116  and  _117
REMARK   52  A    between atoms: _117  and  _118
REMARK   53  A    between atoms: _122  and  _124
REMARK   54  A    between atoms: _124  and  _125
REMARK   55  A    between atoms: _124  and  _127
REMARK   56  A    between atoms: _127  and  _128
REMARK   57  A    between atoms: _128  and  _129
REMARK   58  A    between atoms: _131  and  _133
REMARK   59  A    between atoms: _133  and  _134
REMARK   60  A    between atoms: _133  and  _136
REMARK   61  A    between atoms: _136  and  _137
REMARK   62  A    between atoms: _140  and  _142
REMARK   63  A    between atoms: _142  and  _143
REMARK   64  A    between atoms: _145  and  _147
REMARK   65  A    between atoms: _147  and  _148
REMARK   66  A    between atoms: _150  and  _152
REMARK   67  A    between atoms: _152  and  _153
REMARK   68  A    between atoms: _152  and  _155
REMARK   69  A    between atoms: _155  and  _156
REMARK   70  A    between atoms: _159  and  _161
REMARK   71  A    between atoms: _161  and  _162
REMARK   72  A    between atoms: _164  and  _166
REMARK   73  A    between atoms: _166  and  _167
REMARK   74  A    between atoms: _169  and  _171
REMARK   75  A    between atoms: _171  and  _172
REMARK   76  A    between atoms: _171  and  _174
REMARK   77  A    between atoms: _174  and  _175
REMARK   78  A    between atoms: _181  and  _183
REMARK   79  A    between atoms: _183  and  _184
REMARK   80  A    between atoms: _183  and  _186
REMARK   81  A    between atoms: _186  and  _187
REMARK   82  A    between atoms: _190  and  _192
REMARK   83  A    between atoms: _192  and  _193
REMARK   84  A    between atoms: _192  and  _195
REMARK   85  A    between atoms: _198  and  _200
REMARK   86  A    between atoms: _200  and  _201
REMARK   87  A    between atoms: _200  and  _203
REMARK   88  A    between atoms: _203  and  _204
REMARK   89  A    between atoms: _207  and  _209
REMARK   90  A    between atoms: _209  and  _210
REMARK   91  A    between atoms: _209  and  _212
REMARK   92  A    between atoms: _212  and  _213
REMARK   93  A    between atoms: _217  and  _218
REMARK   94  A    between atoms: _223  and  _225
REMARK   95  A    between atoms: _225  and  _226
REMARK   96  A    between atoms: _229  and  _231
REMARK   97  A    between atoms: _231  and  _232
REMARK   98  A    between atoms: _231  and  _234
REMARK   99  A    between atoms: _234  and  _235
REMARK  100  A    between atoms: _240  and  _242
REMARK  101  A    between atoms: _242  and  _243
REMARK  102  A    between atoms: _242  and  _245
REMARK  103  A    between atoms: _245  and  _246
REMARK  104  A    between atoms: _249  and  _251
REMARK  105  A    between atoms: _251  and  _252
REMARK  106  A    between atoms: _251  and  _254
REMARK  107  A    between atoms: _254  and  _255
REMARK  108  A    between atoms: _258  and  _260
REMARK  109  A    between atoms: _260  and  _261
REMARK  110  A    between atoms: _263  and  _265
REMARK  111  A    between atoms: _265  and  _266
REMARK  112  A    between atoms: _265  and  _268
REMARK  113  A    between atoms: _268  and  _269
REMARK  114  A    between atoms: _269  and  _270
REMARK  115  A    between atoms: _270  and  _271
REMARK  116  A    between atoms: _280  and  _282
REMARK  117  A    between atoms: _282  and  _283
REMARK  118  A    between atoms: _282  and  _285
REMARK  119  A    between atoms: _285  and  _286
REMARK  120  A    between atoms: _286  and  _287
REMARK  121  A    between atoms: _287  and  _288
REMARK  122  A    between atoms: _297  and  _299
REMARK  123  A    between atoms: _299  and  _300
REMARK  124  A    between atoms: _299  and  _302
REMARK  125  A    between atoms: _302  and  _303
REMARK  126  A    between atoms: _306  and  _308
REMARK  127  A    between atoms: _308  and  _309
REMARK  128  A    between atoms: _308  and  _311
REMARK  129  A    between atoms: _311  and  _312
REMARK  130  A    between atoms: _315  and  _317
REMARK  131  A    between atoms: _317  and  _318
REMARK  132  A    between atoms: _317  and  _320
REMARK  133  A    between atoms: _320  and  _321
REMARK  134  A    between atoms: _324  and  _326
REMARK  135  A    between atoms: _326  and  _327
REMARK  136  A    between atoms: _326  and  _329
REMARK  137  A    between atoms: _329  and  _330
REMARK  138  A    between atoms: _333  and  _335
REMARK  139  A    between atoms: _335  and  _336
REMARK  140  A    between atoms: _338  and  _340
REMARK  141  A    between atoms: _340  and  _341
REMARK  142  A    between atoms: _344  and  _346
REMARK  143  A    between atoms: _346  and  _347
REMARK  144  A    between atoms: _346  and  _349
REMARK  145  A    between atoms: _349  and  _350
REMARK  146  A    between atoms: _353  and  _355
REMARK  147  A    between atoms: _355  and  _356
REMARK  148  A    between atoms: _355  and  _358
REMARK  149  A    between atoms: _358  and  _359
REMARK  150  A    between atoms: _362  and  _364
REMARK  151  A    between atoms: _364  and  _365
REMARK  152  A    between atoms: _364  and  _367
REMARK  153  A    between atoms: _367  and  _368
REMARK  154  A    between atoms: _371  and  _373
REMARK  155  A    between atoms: _373  and  _374
REMARK  156  A    between atoms: _373  and  _376
REMARK  157  A    between atoms: _379  and  _381
REMARK  158  A    between atoms: _381  and  _382
REMARK  159  A    between atoms: _381  and  _384
REMARK  160  A    between atoms: _384  and  _385
REMARK  161  A    between atoms: _388  and  _390
REMARK  162  A    between atoms: _390  and  _391
REMARK  163  A    between atoms: _390  and  _393
REMARK  164  A    between atoms: _393  and  _394
REMARK  165  A    between atoms: _394  and  _395
REMARK  166  A    between atoms: _395  and  _396
REMARK  167  A    between atoms: _396  and  _397
REMARK  168  A    between atoms: _401  and  _403
REMARK  169  A    between atoms: _403  and  _404
REMARK  170  A    between atoms: _403  and  _406
REMARK  171  A    between atoms: _406  and  _407
REMARK  172  A    between atoms: _407  and  _408
REMARK  173  A    between atoms: _410  and  _412
REMARK  174  A    between atoms: _412  and  _413
REMARK  175  A    between atoms: _412  and  _415
REMARK  176  A    between atoms: _415  and  _416
REMARK  177  A    between atoms: _419  and  _421
REMARK  178  A    between atoms: _421  and  _422
REMARK  179  A    between atoms: _424  and  _426
REMARK  180  A    between atoms: _426  and  _427
REMARK  181  A    between atoms: _429  and  _431
REMARK  182  A    between atoms: _431  and  _432
REMARK  183  A    between atoms: _431  and  _434
REMARK  184  A    between atoms: _434  and  _435
REMARK  185  A    between atoms: _438  and  _440
REMARK  186  A    between atoms: _440  and  _441
REMARK  187  A    between atoms: _443  and  _445
REMARK  188  A    between atoms: _445  and  _446
REMARK  189  A    between atoms: _448  and  _450
REMARK  190  A    between atoms: _450  and  _451
REMARK  191  A    between atoms: _450  and  _453
REMARK  192  A    between atoms: _453  and  _454
REMARK  193  A    between atoms: _460  and  _462
REMARK  194  A    between atoms: _462  and  _463
REMARK  195  A    between atoms: _462  and  _465
REMARK  196  A    between atoms: _465  and  _466
REMARK  197  A    between atoms: _469  and  _471
REMARK  198  A    between atoms: _471  and  _472
REMARK  199  A    between atoms: _471  and  _474
REMARK  200  A    between atoms: _477  and  _479
REMARK  201  A    between atoms: _479  and  _480
REMARK  202  A    between atoms: _479  and  _482
REMARK  203  A    between atoms: _482  and  _483
REMARK  204  A    between atoms: _486  and  _488
REMARK  205  A    between atoms: _488  and  _489
REMARK  206  A    between atoms: _488  and  _491
REMARK  207  A    between atoms: _491  and  _492
REMARK  208  A    between atoms: _496  and  _497
REMARK  209  A    between atoms: _502  and  _504
REMARK  210  A    between atoms: _504  and  _505
REMARK  211  A    between atoms: _508  and  _510
REMARK  212  A    between atoms: _510  and  _511
REMARK  213  A    between atoms: _510  and  _513
REMARK  214  A    between atoms: _513  and  _514
REMARK  215  A    between atoms: _519  and  _521
REMARK  216  A    between atoms: _521  and  _522
REMARK  217  A    between atoms: _521  and  _524
REMARK  218  A    between atoms: _524  and  _525
REMARK  219  A    between atoms: _528  and  _530
REMARK  220  A    between atoms: _530  and  _531
REMARK  221  A    between atoms: _530  and  _533
REMARK  222  A    between atoms: _533  and  _534
REMARK  223  A    between atoms: _537  and  _539
REMARK  224  A    between atoms: _539  and  _540
REMARK  225  A    between atoms: _542  and  _544
REMARK  226  A    between atoms: _544  and  _545
REMARK  227  A    between atoms: _544  and  _547
REMARK  228  A    between atoms: _547  and  _548
REMARK  229  A    between atoms: _548  and  _549
REMARK  230  A    between atoms: _549  and  _550
REMARK  231  A    between atoms: _559  and  _561
REMARK  232  A    between atoms: _561  and  _562
REMARK  233  A    between atoms: _561  and  _564
REMARK  234  A    between atoms: _564  and  _565
REMARK                            x       y       z     vdW  Elec       q    Type
REMARK                         _______ _______ _______ _____ _____    ______ ____
ROOT
ATOM      1  O   HOH     1      26.453  21.882  -2.474  0.00  0.00    +0.000 OA
ENDROOT
TORSDOF 0
REMARK  Name = ../refined-set-2016/1sdv/1sdv_pocket.pdb
REMARK  234 active torsions:
REMARK  status: ('A' for Active; 'I' for Inactive)
REMARK    1  A    between atoms: _1  and  _3
REMARK    2  A    between atoms: _3  and  _4
REMARK    3  A    between atoms: _3  and  _6
REMARK    4  A    between atoms: _6  and  _7
REMARK    5  A    between atoms: _7  and  _8
REMARK    6  A    between atoms: _8  and  _9
REMARK    7  A    between atoms: _18  and  _20
REMARK    8  A    between atoms: _20  and  _21
REMARK    9  A    between atoms: _20  and  _23
REMARK   10  A    between atoms: _23  and  _24
REMARK   11  A    between atoms: _27  and  _29
REMARK   12  A    between atoms: _29  and  _30
REMARK   13  A    between atoms: _29  and  _32
REMARK   14  A    between atoms: _32  and  _33
REMARK   15  A    between atoms: _36  and  _38
REMARK   16  A    between atoms: _38  and  _39
REMARK   17  A    between atoms: _38  and  _41
REMARK   18  A    between atoms: _41  and  _42
REMARK   19  A    between atoms: _45  and  _47
REMARK   20  A    between atoms: _47  and  _48
REMARK   21  A    between atoms: _47  and  _50
REMARK   22  A    between atoms: _50  and  _51
REMARK   23  A    between atoms: _54  and  _56
REMARK   24  A    between atoms: _56  and  _57
REMARK   25  A    between atoms: _56  and  _59
REMARK   26  A    between atoms: _59  and  _60
REMARK   27  A    between atoms: _63  and  _65
REMARK   28  A    between atoms: _65  and  _66
REMARK   29  A    between atoms: _68  and  _70
REMARK   30  A    between atoms: _70  and  _71
REMARK   31  A    between atoms: _74  and  _76
REMARK   32  A    between atoms: _76  and  _77
REMARK   33  A    between atoms: _76  and  _79
REMARK   34  A    between atoms: _79  and  _80
REMARK   35  A    between atoms: _83  and  _85
REMARK   36  A    between atoms: _85  and  _86
REMARK   37  A    between atoms: _85  and  _88
REMARK   38  A    between atoms: _88  and  _89
REMARK   39  A    between atoms: _92  and  _94
REMARK   40  A    between atoms: _94  and  _95
REMARK   41  A    between atoms: _94  and  _97
REMARK   42  A    between atoms: _97  and  _98
REMARK   43  A    between atoms: _101  and  _103
REMARK   44  A    between atoms: _103  and  _104
REMARK   45  A    between atoms: _103  and  _106
REMARK   46  A    between atoms: _109  and  _111
REMARK   47  A    between atoms: _111  and  _112
REMARK   48  A    between atoms: _111  and  _114
REMARK   49  A    between atoms: _114  and  _115
REMARK   50  A    between atoms: _115  and  _116
REMARK   51  A    between atoms: _116  and  _117
REMARK   52  A    between atoms: _117  and  _118
REMARK   53  A    between atoms: _122  and  _124
REMARK   54  A    between atoms: _124  and  _125
REMARK   55  A    between atoms: _124  and  _127
REMARK   56  A    between atoms: _127  and  _128
REMARK   57  A    between atoms: _128  and  _129
REMARK   58  A    between atoms: _131  and  _133
REMARK   59  A    between atoms: _133  and  _134
REMARK   60  A    between atoms: _133  and  _136
REMARK   61  A    between atoms: _136  and  _137
REMARK   62  A    between atoms: _140  and  _142
REMARK   63  A    between atoms: _142  and  _143
REMARK   64  A    between atoms: _145  and  _147
REMARK   65  A    between atoms: _147  and  _148
REMARK   66  A    between atoms: _150  and  _152
REMARK   67  A    between atoms: _152  and  _153
REMARK   68  A    between atoms: _152  and  _155
REMARK   69  A    between atoms: _155  and  _156
REMARK   70  A    between atoms: _159  and  _161
REMARK   71  A    between atoms: _161  and  _162
REMARK   72  A    between atoms: _164  and  _166
REMARK   73  A    between atoms: _166  and  _167
REMARK   74  A    between atoms: _169  and  _171
REMARK   75  A    between atoms: _171  and  _172
REMARK   76  A    between atoms: _171  and  _174
REMARK   77  A    between atoms: _174  and  _175
REMARK   78  A    between atoms: _181  and  _183
REMARK   79  A    between atoms: _183  and  _184
REMARK   80  A    between atoms: _183  and  _186
REMARK   81  A    between atoms: _186  and  _187
REMARK   82  A    between atoms: _190  and  _192
REMARK   83  A    between atoms: _192  and  _193
REMARK   84  A    between atoms: _192  and  _195
REMARK   85  A    between atoms: _198  and  _200
REMARK   86  A    between atoms: _200  and  _201
REMARK   87  A    between atoms: _200  and  _203
REMARK   88  A    between atoms: _203  and  _204
REMARK   89  A    between atoms: _207  and  _209
REMARK   90  A    between atoms: _209  and  _210
REMARK   91  A    between atoms: _209  and  _212
REMARK   92  A    between atoms: _212  and  _213
REMARK   93  A    between atoms: _217  and  _218
REMARK   94  A    between atoms: _223  and  _225
REMARK   95  A    between atoms: _225  and  _226
REMARK   96  A    between atoms: _229  and  _231
REMARK   97  A    between atoms: _231  and  _232
REMARK   98  A    between atoms: _231  and  _234
REMARK   99  A    between atoms: _234  and  _235
REMARK  100  A    between atoms: _240  and  _242
REMARK  101  A    between atoms: _242  and  _243
REMARK  102  A    between atoms: _242  and  _245
REMARK  103  A    between atoms: _245  and  _246
REMARK  104  A    between atoms: _249  and  _251
REMARK  105  A    between atoms: _251  and  _252
REMARK  106  A    between atoms: _251  and  _254
REMARK  107  A    between atoms: _254  and  _255
REMARK  108  A    between atoms: _258  and  _260
REMARK  109  A    between atoms: _260  and  _261
REMARK  110  A    between atoms: _263  and  _265
REMARK  111  A    between atoms: _265  and  _266
REMARK  112  A    between atoms: _265  and  _268
REMARK  113  A    between atoms: _268  and  _269
REMARK  114  A    between atoms: _269  and  _270
REMARK  115  A    between atoms: _270  and  _271
REMARK  116  A    between atoms: _280  and  _282
REMARK  117  A    between atoms: _282  and  _283
REMARK  118  A    between atoms: _282  and  _285
REMARK  119  A    between atoms: _285  and  _286
REMARK  120  A    between atoms: _286  and  _287
REMARK  121  A    between atoms: _287  and  _288
REMARK  122  A    between atoms: _297  and  _299
REMARK  123  A    between atoms: _299  and  _300
REMARK  124  A    between atoms: _299  and  _302
REMARK  125  A    between atoms: _302  and  _303
REMARK  126  A    between atoms: _306  and  _308
REMARK  127  A    between atoms: _308  and  _309
REMARK  128  A    between atoms: _308  and  _311
REMARK  129  A    between atoms: _311  and  _312
REMARK  130  A    between atoms: _315  and  _317
REMARK  131  A    between atoms: _317  and  _318
REMARK  132  A    between atoms: _317  and  _320
REMARK  133  A    between atoms: _320  and  _321
REMARK  134  A    between atoms: _324  and  _326
REMARK  135  A    between atoms: _326  and  _327
REMARK  136  A    between atoms: _326  and  _329
REMARK  137  A    between atoms: _329  and  _330
REMARK  138  A    between atoms: _333  and  _335
REMARK  139  A    between atoms: _335  and  _336
REMARK  140  A    between atoms: _338  and  _340
REMARK  141  A    between atoms: _340  and  _341
REMARK  142  A    between atoms: _344  and  _346
REMARK  143  A    between atoms: _346  and  _347
REMARK  144  A    between atoms: _346  and  _349
REMARK  145  A    between atoms: _349  and  _350
REMARK  146  A    between atoms: _353  and  _355
REMARK  147  A    between atoms: _355  and  _356
REMARK  148  A    between atoms: _355  and  _358
REMARK  149  A    between atoms: _358  and  _359
REMARK  150  A    between atoms: _362  and  _364
REMARK  151  A    between atoms: _364  and  _365
REMARK  152  A    between atoms: _364  and  _367
REMARK  153  A    between atoms: _367  and  _368
REMARK  154  A    between atoms: _371  and  _373
REMARK  155  A    between atoms: _373  and  _374
REMARK  156  A    between atoms: _373  and  _376
REMARK  157  A    between atoms: _379  and  _381
REMARK  158  A    between atoms: _381  and  _382
REMARK  159  A    between atoms: _381  and  _384
REMARK  160  A    between atoms: _384  and  _385
REMARK  161  A    between atoms: _388  and  _390
REMARK  162  A    between atoms: _390  and  _391
REMARK  163  A    between atoms: _390  and  _393
REMARK  164  A    between atoms: _393  and  _394
REMARK  165  A    between atoms: _394  and  _395
REMARK  166  A    between atoms: _395  and  _396
REMARK  167  A    between atoms: _396  and  _397
REMARK  168  A    between atoms: _401  and  _403
REMARK  169  A    between atoms: _403  and  _404
REMARK  170  A    between atoms: _403  and  _406
REMARK  171  A    between atoms: _406  and  _407
REMARK  172  A    between atoms: _407  and  _408
REMARK  173  A    between atoms: _410  and  _412
REMARK  174  A    between atoms: _412  and  _413
REMARK  175  A    between atoms: _412  and  _415
REMARK  176  A    between atoms: _415  and  _416
REMARK  177  A    between atoms: _419  and  _421
REMARK  178  A    between atoms: _421  and  _422
REMARK  179  A    between atoms: _424  and  _426
REMARK  180  A    between atoms: _426  and  _427
REMARK  181  A    between atoms: _429  and  _431
REMARK  182  A    between atoms: _431  and  _432
REMARK  183  A    between atoms: _431  and  _434
REMARK  184  A    between atoms: _434  and  _435
REMARK  185  A    between atoms: _438  and  _440
REMARK  186  A    between atoms: _440  and  _441
REMARK  187  A    between atoms: _443  and  _445
REMARK  188  A    between atoms: _445  and  _446
REMARK  189  A    between atoms: _448  and  _450
REMARK  190  A    between atoms: _450  and  _451
REMARK  191  A    between atoms: _450  and  _453
REMARK  192  A    between atoms: _453  and  _454
REMARK  193  A    between atoms: _460  and  _462
REMARK  194  A    between atoms: _462  and  _463
REMARK  195  A    between atoms: _462  and  _465
REMARK  196  A    between atoms: _465  and  _466
REMARK  197  A    between atoms: _469  and  _471
REMARK  198  A    between atoms: _471  and  _472
REMARK  199  A    between atoms: _471  and  _474
REMARK  200  A    between atoms: _477  and  _479
REMARK  201  A    between atoms: _479  and  _480
REMARK  202  A    between atoms: _479  and  _482
REMARK  203  A    between atoms: _482  and  _483
REMARK  204  A    between atoms: _486  and  _488
REMARK  205  A    between atoms: _488  and  _489
REMARK  206  A    between atoms: _488  and  _491
REMARK  207  A    between atoms: _491  and  _492
REMARK  208  A    between atoms: _496  and  _497
REMARK  209  A    between atoms: _502  and  _504
REMARK  210  A    between atoms: _504  and  _505
REMARK  211  A    between atoms: _508  and  _510
REMARK  212  A    between atoms: _510  and  _511
REMARK  213  A    between atoms: _510  and  _513
REMARK  214  A    between atoms: _513  and  _514
REMARK  215  A    between atoms: _519  and  _521
REMARK  216  A    between atoms: _521  and  _522
REMARK  217  A    between atoms: _521  and  _524
REMARK  218  A    between atoms: _524  and  _525
REMARK  219  A    between atoms: _528  and  _530
REMARK  220  A    between atoms: _530  and  _531
REMARK  221  A    between atoms: _530  and  _533
REMARK  222  A    between atoms: _533  and  _534
REMARK  223  A    between atoms: _537  and  _539
REMARK  224  A    between atoms: _539  and  _540
REMARK  225  A    between atoms: _542  and  _544
REMARK  226  A    between atoms: _544  and  _545
REMARK  227  A    between atoms: _544  and  _547
REMARK  228  A    between atoms: _547  and  _548
REMARK  229  A    between atoms: _548  and  _549
REMARK  230  A    between atoms: _549  and  _550
REMARK  231  A    between atoms: _559  and  _561
REMARK  232  A    between atoms: _561  and  _562
REMARK  233  A    between atoms: _561  and  _564
REMARK  234  A    between atoms: _564  and  _565
REMARK                            x       y       z     vdW  Elec       q    Type
REMARK                         _______ _______ _______ _____ _____    ______ ____
ROOT
ATOM      1  O   HOH     1      24.840  20.689  -4.381  0.00  0.00    +0.000 OA
ENDROOT
TORSDOF 0
REMARK  Name = ../refined-set-2016/1sdv/1sdv_pocket.pdb
REMARK  234 active torsions:
REMARK  status: ('A' for Active; 'I' for Inactive)
REMARK    1  A    between atoms: _1  and  _3
REMARK    2  A    between atoms: _3  and  _4
REMARK    3  A    between atoms: _3  and  _6
REMARK    4  A    between atoms: _6  and  _7
REMARK    5  A    between atoms: _7  and  _8
REMARK    6  A    between atoms: _8  and  _9
REMARK    7  A    between atoms: _18  and  _20
REMARK    8  A    between atoms: _20  and  _21
REMARK    9  A    between atoms: _20  and  _23
REMARK   10  A    between atoms: _23  and  _24
REMARK   11  A    between atoms: _27  and  _29
REMARK   12  A    between atoms: _29  and  _30
REMARK   13  A    between atoms: _29  and  _32
REMARK   14  A    between atoms: _32  and  _33
REMARK   15  A    between atoms: _36  and  _38
REMARK   16  A    between atoms: _38  and  _39
REMARK   17  A    between atoms: _38  and  _41
REMARK   18  A    between atoms: _41  and  _42
REMARK   19  A    between atoms: _45  and  _47
REMARK   20  A    between atoms: _47  and  _48
REMARK   21  A    between atoms: _47  and  _50
REMARK   22  A    between atoms: _50  and  _51
REMARK   23  A    between atoms: _54  and  _56
REMARK   24  A    between atoms: _56  and  _57
REMARK   25  A    between atoms: _56  and  _59
REMARK   26  A    between atoms: _59  and  _60
REMARK   27  A    between atoms: _63  and  _65
REMARK   28  A    between atoms: _65  and  _66
REMARK   29  A    between atoms: _68  and  _70
REMARK   30  A    between atoms: _70  and  _71
REMARK   31  A    between atoms: _74  and  _76
REMARK   32  A    between atoms: _76  and  _77
REMARK   33  A    between atoms: _76  and  _79
REMARK   34  A    between atoms: _79  and  _80
REMARK   35  A    between atoms: _83  and  _85
REMARK   36  A    between atoms: _85  and  _86
REMARK   37  A    between atoms: _85  and  _88
REMARK   38  A    between atoms: _88  and  _89
REMARK   39  A    between atoms: _92  and  _94
REMARK   40  A    between atoms: _94  and  _95
REMARK   41  A    between atoms: _94  and  _97
REMARK   42  A    between atoms: _97  and  _98
REMARK   43  A    between atoms: _101  and  _103
REMARK   44  A    between atoms: _103  and  _104
REMARK   45  A    between atoms: _103  and  _106
REMARK   46  A    between atoms: _109  and  _111
REMARK   47  A    between atoms: _111  and  _112
REMARK   48  A    between atoms: _111  and  _114
REMARK   49  A    between atoms: _114  and  _115
REMARK   50  A    between atoms: _115  and  _116
REMARK   51  A    between atoms: _116  and  _117
REMARK   52  A    between atoms: _117  and  _118
REMARK   53  A    between atoms: _122  and  _124
REMARK   54  A    between atoms: _124  and  _125
REMARK   55  A    between atoms: _124  and  _127
REMARK   56  A    between atoms: _127  and  _128
REMARK   57  A    between atoms: _128  and  _129
REMARK   58  A    between atoms: _131  and  _133
REMARK   59  A    between atoms: _133  and  _134
REMARK   60  A    between atoms: _133  and  _136
REMARK   61  A    between atoms: _136  and  _137
REMARK   62  A    between atoms: _140  and  _142
REMARK   63  A    between atoms: _142  and  _143
REMARK   64  A    between atoms: _145  and  _147
REMARK   65  A    between atoms: _147  and  _148
REMARK   66  A    between atoms: _150  and  _152
REMARK   67  A    between atoms: _152  and  _153
REMARK   68  A    between atoms: _152  and  _155
REMARK   69  A    between atoms: _155  and  _156
REMARK   70  A    between atoms: _159  and  _161
REMARK   71  A    between atoms: _161  and  _162
REMARK   72  A    between atoms: _164  and  _166
REMARK   73  A    between atoms: _166  and  _167
REMARK   74  A    between atoms: _169  and  _171
REMARK   75  A    between atoms: _171  and  _172
REMARK   76  A    between atoms: _171  and  _174
REMARK   77  A    between atoms: _174  and  _175
REMARK   78  A    between atoms: _181  and  _183
REMARK   79  A    between atoms: _183  and  _184
REMARK   80  A    between atoms: _183  and  _186
REMARK   81  A    between atoms: _186  and  _187
REMARK   82  A    between atoms: _190  and  _192
REMARK   83  A    between atoms: _192  and  _193
REMARK   84  A    between atoms: _192  and  _195
REMARK   85  A    between atoms: _198  and  _200
REMARK   86  A    between atoms: _200  and  _201
REMARK   87  A    between atoms: _200  and  _203
REMARK   88  A    between atoms: _203  and  _204
REMARK   89  A    between atoms: _207  and  _209
REMARK   90  A    between atoms: _209  and  _210
REMARK   91  A    between atoms: _209  and  _212
REMARK   92  A    between atoms: _212  and  _213
REMARK   93  A    between atoms: _217  and  _218
REMARK   94  A    between atoms: _223  and  _225
REMARK   95  A    between atoms: _225  and  _226
REMARK   96  A    between atoms: _229  and  _231
REMARK   97  A    between atoms: _231  and  _232
REMARK   98  A    between atoms: _231  and  _234
REMARK   99  A    between atoms: _234  and  _235
REMARK  100  A    between atoms: _240  and  _242
REMARK  101  A    between atoms: _242  and  _243
REMARK  102  A    between atoms: _242  and  _245
REMARK  103  A    between atoms: _245  and  _246
REMARK  104  A    between atoms: _249  and  _251
REMARK  105  A    between atoms: _251  and  _252
REMARK  106  A    between atoms: _251  and  _254
REMARK  107  A    between atoms: _254  and  _255
REMARK  108  A    between atoms: _258  and  _260
REMARK  109  A    between atoms: _260  and  _261
REMARK  110  A    between atoms: _263  and  _265
REMARK  111  A    between atoms: _265  and  _266
REMARK  112  A    between atoms: _265  and  _268
REMARK  113  A    between atoms: _268  and  _269
REMARK  114  A    between atoms: _269  and  _270
REMARK  115  A    between atoms: _270  and  _271
REMARK  116  A    between atoms: _280  and  _282
REMARK  117  A    between atoms: _282  and  _283
REMARK  118  A    between atoms: _282  and  _285
REMARK  119  A    between atoms: _285  and  _286
REMARK  120  A    between atoms: _286  and  _287
REMARK  121  A    between atoms: _287  and  _288
REMARK  122  A    between atoms: _297  and  _299
REMARK  123  A    between atoms: _299  and  _300
REMARK  124  A    between atoms: _299  and  _302
REMARK  125  A    between atoms: _302  and  _303
REMARK  126  A    between atoms: _306  and  _308
REMARK  127  A    between atoms: _308  and  _309
REMARK  128  A    between atoms: _308  and  _311
REMARK  129  A    between atoms: _311  and  _312
REMARK  130  A    between atoms: _315  and  _317
REMARK  131  A    between atoms: _317  and  _318
REMARK  132  A    between atoms: _317  and  _320
REMARK  133  A    between atoms: _320  and  _321
REMARK  134  A    between atoms: _324  and  _326
REMARK  135  A    between atoms: _326  and  _327
REMARK  136  A    between atoms: _326  and  _329
REMARK  137  A    between atoms: _329  and  _330
REMARK  138  A    between atoms: _333  and  _335
REMARK  139  A    between atoms: _335  and  _336
REMARK  140  A    between atoms: _338  and  _340
REMARK  141  A    between atoms: _340  and  _341
REMARK  142  A    between atoms: _344  and  _346
REMARK  143  A    between atoms: _346  and  _347
REMARK  144  A    between atoms: _346  and  _349
REMARK  145  A    between atoms: _349  and  _350
REMARK  146  A    between atoms: _353  and  _355
REMARK  147  A    between atoms: _355  and  _356
REMARK  148  A    between atoms: _355  and  _358
REMARK  149  A    between atoms: _358  and  _359
REMARK  150  A    between atoms: _362  and  _364
REMARK  151  A    between atoms: _364  and  _365
REMARK  152  A    between atoms: _364  and  _367
REMARK  153  A    between atoms: _367  and  _368
REMARK  154  A    between atoms: _371  and  _373
REMARK  155  A    between atoms: _373  and  _374
REMARK  156  A    between atoms: _373  and  _376
REMARK  157  A    between atoms: _379  and  _381
REMARK  158  A    between atoms: _381  and  _382
REMARK  159  A    between atoms: _381  and  _384
REMARK  160  A    between atoms: _384  and  _385
REMARK  161  A    between atoms: _388  and  _390
REMARK  162  A    between atoms: _390  and  _391
REMARK  163  A    between atoms: _390  and  _393
REMARK  164  A    between atoms: _393  and  _394
REMARK  165  A    between atoms: _394  and  _395
REMARK  166  A    between atoms: _395  and  _396
REMARK  167  A    between atoms: _396  and  _397
REMARK  168  A    between atoms: _401  and  _403
REMARK  169  A    between atoms: _403  and  _404
REMARK  170  A    between atoms: _403  and  _406
REMARK  171  A    between atoms: _406  and  _407
REMARK  172  A    between atoms: _407  and  _408
REMARK  173  A    between atoms: _410  and  _412
REMARK  174  A    between atoms: _412  and  _413
REMARK  175  A    between atoms: _412  and  _415
REMARK  176  A    between atoms: _415  and  _416
REMARK  177  A    between atoms: _419  and  _421
REMARK  178  A    between atoms: _421  and  _422
REMARK  179  A    between atoms: _424  and  _426
REMARK  180  A    between atoms: _426  and  _427
REMARK  181  A    between atoms: _429  and  _431
REMARK  182  A    between atoms: _431  and  _432
REMARK  183  A    between atoms: _431  and  _434
REMARK  184  A    between atoms: _434  and  _435
REMARK  185  A    between atoms: _438  and  _440
REMARK  186  A    between atoms: _440  and  _441
REMARK  187  A    between atoms: _443  and  _445
REMARK  188  A    between atoms: _445  and  _446
REMARK  189  A    between atoms: _448  and  _450
REMARK  190  A    between atoms: _450  and  _451
REMARK  191  A    between atoms: _450  and  _453
REMARK  192  A    between atoms: _453  and  _454
REMARK  193  A    between atoms: _460  and  _462
REMARK  194  A    between atoms: _462  and  _463
REMARK  195  A    between atoms: _462  and  _465
REMARK  196  A    between atoms: _465  and  _466
REMARK  197  A    between atoms: _469  and  _471
REMARK  198  A    between atoms: _471  and  _472
REMARK  199  A    between atoms: _471  and  _474
REMARK  200  A    between atoms: _477  and  _479
REMARK  201  A    between atoms: _479  and  _480
REMARK  202  A    between atoms: _479  and  _482
REMARK  203  A    between atoms: _482  and  _483
REMARK  204  A    between atoms: _486  and  _488
REMARK  205  A    between atoms: _488  and  _489
REMARK  206  A    between atoms: _488  and  _491
REMARK  207  A    between atoms: _491  and  _492
REMARK  208  A    between atoms: _496  and  _497
REMARK  209  A    between atoms: _502  and  _504
REMARK  210  A    between atoms: _504  and  _505
REMARK  211  A    between atoms: _508  and  _510
REMARK  212  A    between atoms: _510  and  _511
REMARK  213  A    between atoms: _510  and  _513
REMARK  214  A    between atoms: _513  and  _514
REMARK  215  A    between atoms: _519  and  _521
REMARK  216  A    between atoms: _521  and  _522
REMARK  217  A    between atoms: _521  and  _524
REMARK  218  A    between atoms: _524  and  _525
REMARK  219  A    between atoms: _528  and  _530
REMARK  220  A    between atoms: _530  and  _531
REMARK  221  A    between atoms: _530  and  _533
REMARK  222  A    between atoms: _533  and  _534
REMARK  223  A    between atoms: _537  and  _539
REMARK  224  A    between atoms: _539  and  _540
REMARK  225  A    between atoms: _542  and  _544
REMARK  226  A    between atoms: _544  and  _545
REMARK  227  A    between atoms: _544  and  _547
REMARK  228  A    between atoms: _547  and  _548
REMARK  229  A    between atoms: _548  and  _549
REMARK  230  A    between atoms: _549  and  _550
REMARK  231  A    between atoms: _559  and  _561
REMARK  232  A    between atoms: _561  and  _562
REMARK  233  A    between atoms: _561  and  _564
REMARK  234  A    between atoms: _564  and  _565
REMARK                            x       y       z     vdW  Elec       q    Type
REMARK                         _______ _______ _______ _____ _____    ______ ____
ROOT
ATOM      1  O   HOH     1      17.591  19.291  13.685  0.00  0.00    +0.000 OA
ENDROOT
TORSDOF 0
REMARK  Name = ../refined-set-2016/1sdv/1sdv_pocket.pdb
REMARK  234 active torsions:
REMARK  status: ('A' for Active; 'I' for Inactive)
REMARK    1  A    between atoms: _1  and  _3
REMARK    2  A    between atoms: _3  and  _4
REMARK    3  A    between atoms: _3  and  _6
REMARK    4  A    between atoms: _6  and  _7
REMARK    5  A    between atoms: _7  and  _8
REMARK    6  A    between atoms: _8  and  _9
REMARK    7  A    between atoms: _18  and  _20
REMARK    8  A    between atoms: _20  and  _21
REMARK    9  A    between atoms: _20  and  _23
REMARK   10  A    between atoms: _23  and  _24
REMARK   11  A    between atoms: _27  and  _29
REMARK   12  A    between atoms: _29  and  _30
REMARK   13  A    between atoms: _29  and  _32
REMARK   14  A    between atoms: _32  and  _33
REMARK   15  A    between atoms: _36  and  _38
REMARK   16  A    between atoms: _38  and  _39
REMARK   17  A    between atoms: _38  and  _41
REMARK   18  A    between atoms: _41  and  _42
REMARK   19  A    between atoms: _45  and  _47
REMARK   20  A    between atoms: _47  and  _48
REMARK   21  A    between atoms: _47  and  _50
REMARK   22  A    between atoms: _50  and  _51
REMARK   23  A    between atoms: _54  and  _56
REMARK   24  A    between atoms: _56  and  _57
REMARK   25  A    between atoms: _56  and  _59
REMARK   26  A    between atoms: _59  and  _60
REMARK   27  A    between atoms: _63  and  _65
REMARK   28  A    between atoms: _65  and  _66
REMARK   29  A    between atoms: _68  and  _70
REMARK   30  A    between atoms: _70  and  _71
REMARK   31  A    between atoms: _74  and  _76
REMARK   32  A    between atoms: _76  and  _77
REMARK   33  A    between atoms: _76  and  _79
REMARK   34  A    between atoms: _79  and  _80
REMARK   35  A    between atoms: _83  and  _85
REMARK   36  A    between atoms: _85  and  _86
REMARK   37  A    between atoms: _85  and  _88
REMARK   38  A    between atoms: _88  and  _89
REMARK   39  A    between atoms: _92  and  _94
REMARK   40  A    between atoms: _94  and  _95
REMARK   41  A    between atoms: _94  and  _97
REMARK   42  A    between atoms: _97  and  _98
REMARK   43  A    between atoms: _101  and  _103
REMARK   44  A    between atoms: _103  and  _104
REMARK   45  A    between atoms: _103  and  _106
REMARK   46  A    between atoms: _109  and  _111
REMARK   47  A    between atoms: _111  and  _112
REMARK   48  A    between atoms: _111  and  _114
REMARK   49  A    between atoms: _114  and  _115
REMARK   50  A    between atoms: _115  and  _116
REMARK   51  A    between atoms: _116  and  _117
REMARK   52  A    between atoms: _117  and  _118
REMARK   53  A    between atoms: _122  and  _124
REMARK   54  A    between atoms: _124  and  _125
REMARK   55  A    between atoms: _124  and  _127
REMARK   56  A    between atoms: _127  and  _128
REMARK   57  A    between atoms: _128  and  _129
REMARK   58  A    between atoms: _131  and  _133
REMARK   59  A    between atoms: _133  and  _134
REMARK   60  A    between atoms: _133  and  _136
REMARK   61  A    between atoms: _136  and  _137
REMARK   62  A    between atoms: _140  and  _142
REMARK   63  A    between atoms: _142  and  _143
REMARK   64  A    between atoms: _145  and  _147
REMARK   65  A    between atoms: _147  and  _148
REMARK   66  A    between atoms: _150  and  _152
REMARK   67  A    between atoms: _152  and  _153
REMARK   68  A    between atoms: _152  and  _155
REMARK   69  A    between atoms: _155  and  _156
REMARK   70  A    between atoms: _159  and  _161
REMARK   71  A    between atoms: _161  and  _162
REMARK   72  A    between atoms: _164  and  _166
REMARK   73  A    between atoms: _166  and  _167
REMARK   74  A    between atoms: _169  and  _171
REMARK   75  A    between atoms: _171  and  _172
REMARK   76  A    between atoms: _171  and  _174
REMARK   77  A    between atoms: _174  and  _175
REMARK   78  A    between atoms: _181  and  _183
REMARK   79  A    between atoms: _183  and  _184
REMARK   80  A    between atoms: _183  and  _186
REMARK   81  A    between atoms: _186  and  _187
REMARK   82  A    between atoms: _190  and  _192
REMARK   83  A    between atoms: _192  and  _193
REMARK   84  A    between atoms: _192  and  _195
REMARK   85  A    between atoms: _198  and  _200
REMARK   86  A    between atoms: _200  and  _201
REMARK   87  A    between atoms: _200  and  _203
REMARK   88  A    between atoms: _203  and  _204
REMARK   89  A    between atoms: _207  and  _209
REMARK   90  A    between atoms: _209  and  _210
REMARK   91  A    between atoms: _209  and  _212
REMARK   92  A    between atoms: _212  and  _213
REMARK   93  A    between atoms: _217  and  _218
REMARK   94  A    between atoms: _223  and  _225
REMARK   95  A    between atoms: _225  and  _226
REMARK   96  A    between atoms: _229  and  _231
REMARK   97  A    between atoms: _231  and  _232
REMARK   98  A    between atoms: _231  and  _234
REMARK   99  A    between atoms: _234  and  _235
REMARK  100  A    between atoms: _240  and  _242
REMARK  101  A    between atoms: _242  and  _243
REMARK  102  A    between atoms: _242  and  _245
REMARK  103  A    between atoms: _245  and  _246
REMARK  104  A    between atoms: _249  and  _251
REMARK  105  A    between atoms: _251  and  _252
REMARK  106  A    between atoms: _251  and  _254
REMARK  107  A    between atoms: _254  and  _255
REMARK  108  A    between atoms: _258  and  _260
REMARK  109  A    between atoms: _260  and  _261
REMARK  110  A    between atoms: _263  and  _265
REMARK  111  A    between atoms: _265  and  _266
REMARK  112  A    between atoms: _265  and  _268
REMARK  113  A    between atoms: _268  and  _269
REMARK  114  A    between atoms: _269  and  _270
REMARK  115  A    between atoms: _270  and  _271
REMARK  116  A    between atoms: _280  and  _282
REMARK  117  A    between atoms: _282  and  _283
REMARK  118  A    between atoms: _282  and  _285
REMARK  119  A    between atoms: _285  and  _286
REMARK  120  A    between atoms: _286  and  _287
REMARK  121  A    between atoms: _287  and  _288
REMARK  122  A    between atoms: _297  and  _299
REMARK  123  A    between atoms: _299  and  _300
REMARK  124  A    between atoms: _299  and  _302
REMARK  125  A    between atoms: _302  and  _303
REMARK  126  A    between atoms: _306  and  _308
REMARK  127  A    between atoms: _308  and  _309
REMARK  128  A    between atoms: _308  and  _311
REMARK  129  A    between atoms: _311  and  _312
REMARK  130  A    between atoms: _315  and  _317
REMARK  131  A    between atoms: _317  and  _318
REMARK  132  A    between atoms: _317  and  _320
REMARK  133  A    between atoms: _320  and  _321
REMARK  134  A    between atoms: _324  and  _326
REMARK  135  A    between atoms: _326  and  _327
REMARK  136  A    between atoms: _326  and  _329
REMARK  137  A    between atoms: _329  and  _330
REMARK  138  A    between atoms: _333  and  _335
REMARK  139  A    between atoms: _335  and  _336
REMARK  140  A    between atoms: _338  and  _340
REMARK  141  A    between atoms: _340  and  _341
REMARK  142  A    between atoms: _344  and  _346
REMARK  143  A    between atoms: _346  and  _347
REMARK  144  A    between atoms: _346  and  _349
REMARK  145  A    between atoms: _349  and  _350
REMARK  146  A    between atoms: _353  and  _355
REMARK  147  A    between atoms: _355  and  _356
REMARK  148  A    between atoms: _355  and  _358
REMARK  149  A    between atoms: _358  and  _359
REMARK  150  A    between atoms: _362  and  _364
REMARK  151  A    between atoms: _364  and  _365
REMARK  152  A    between atoms: _364  and  _367
REMARK  153  A    between atoms: _367  and  _368
REMARK  154  A    between atoms: _371  and  _373
REMARK  155  A    between atoms: _373  and  _374
REMARK  156  A    between atoms: _373  and  _376
REMARK  157  A    between atoms: _379  and  _381
REMARK  158  A    between atoms: _381  and  _382
REMARK  159  A    between atoms: _381  and  _384
REMARK  160  A    between atoms: _384  and  _385
REMARK  161  A    between atoms: _388  and  _390
REMARK  162  A    between atoms: _390  and  _391
REMARK  163  A    between atoms: _390  and  _393
REMARK  164  A    between atoms: _393  and  _394
REMARK  165  A    between atoms: _394  and  _395
REMARK  166  A    between atoms: _395  and  _396
REMARK  167  A    between atoms: _396  and  _397
REMARK  168  A    between atoms: _401  and  _403
REMARK  169  A    between atoms: _403  and  _404
REMARK  170  A    between atoms: _403  and  _406
REMARK  171  A    between atoms: _406  and  _407
REMARK  172  A    between atoms: _407  and  _408
REMARK  173  A    between atoms: _410  and  _412
REMARK  174  A    between atoms: _412  and  _413
REMARK  175  A    between atoms: _412  and  _415
REMARK  176  A    between atoms: _415  and  _416
REMARK  177  A    between atoms: _419  and  _421
REMARK  178  A    between atoms: _421  and  _422
REMARK  179  A    between atoms: _424  and  _426
REMARK  180  A    between atoms: _426  and  _427
REMARK  181  A    between atoms: _429  and  _431
REMARK  182  A    between atoms: _431  and  _432
REMARK  183  A    between atoms: _431  and  _434
REMARK  184  A    between atoms: _434  and  _435
REMARK  185  A    between atoms: _438  and  _440
REMARK  186  A    between atoms: _440  and  _441
REMARK  187  A    between atoms: _443  and  _445
REMARK  188  A    between atoms: _445  and  _446
REMARK  189  A    between atoms: _448  and  _450
REMARK  190  A    between atoms: _450  and  _451
REMARK  191  A    between atoms: _450  and  _453
REMARK  192  A    between atoms: _453  and  _454
REMARK  193  A    between atoms: _460  and  _462
REMARK  194  A    between atoms: _462  and  _463
REMARK  195  A    between atoms: _462  and  _465
REMARK  196  A    between atoms: _465  and  _466
REMARK  197  A    between atoms: _469  and  _471
REMARK  198  A    between atoms: _471  and  _472
REMARK  199  A    between atoms: _471  and  _474
REMARK  200  A    between atoms: _477  and  _479
REMARK  201  A    between atoms: _479  and  _480
REMARK  202  A    between atoms: _479  and  _482
REMARK  203  A    between atoms: _482  and  _483
REMARK  204  A    between atoms: _486  and  _488
REMARK  205  A    between atoms: _488  and  _489
REMARK  206  A    between atoms: _488  and  _491
REMARK  207  A    between atoms: _491  and  _492
REMARK  208  A    between atoms: _496  and  _497
REMARK  209  A    between atoms: _502  and  _504
REMARK  210  A    between atoms: _504  and  _505
REMARK  211  A    between atoms: _508  and  _510
REMARK  212  A    between atoms: _510  and  _511
REMARK  213  A    between atoms: _510  and  _513
REMARK  214  A    between atoms: _513  and  _514
REMARK  215  A    between atoms: _519  and  _521
REMARK  216  A    between atoms: _521  and  _522
REMARK  217  A    between atoms: _521  and  _524
REMARK  218  A    between atoms: _524  and  _525
REMARK  219  A    between atoms: _528  and  _530
REMARK  220  A    between atoms: _530  and  _531
REMARK  221  A    between atoms: _530  and  _533
REMARK  222  A    between atoms: _533  and  _534
REMARK  223  A    between atoms: _537  and  _539
REMARK  224  A    between atoms: _539  and  _540
REMARK  225  A    between atoms: _542  and  _544
REMARK  226  A    between atoms: _544  and  _545
REMARK  227  A    between atoms: _544  and  _547
REMARK  228  A    between atoms: _547  and  _548
REMARK  229  A    between atoms: _548  and  _549
REMARK  230  A    between atoms: _549  and  _550
REMARK  231  A    between atoms: _559  and  _561
REMARK  232  A    between atoms: _561  and  _562
REMARK  233  A    between atoms: _561  and  _564
REMARK  234  A    between atoms: _564  and  _565
REMARK                            x       y       z     vdW  Elec       q    Type
REMARK                         _______ _______ _______ _____ _____    ______ ____
ROOT
ATOM      1  O   HOH     1      16.050  11.654   8.730  0.00  0.00    +0.000 OA
ENDROOT
TORSDOF 0
REMARK  Name = ../refined-set-2016/1sdv/1sdv_pocket.pdb
REMARK  234 active torsions:
REMARK  status: ('A' for Active; 'I' for Inactive)
REMARK    1  A    between atoms: _1  and  _3
REMARK    2  A    between atoms: _3  and  _4
REMARK    3  A    between atoms: _3  and  _6
REMARK    4  A    between atoms: _6  and  _7
REMARK    5  A    between atoms: _7  and  _8
REMARK    6  A    between atoms: _8  and  _9
REMARK    7  A    between atoms: _18  and  _20
REMARK    8  A    between atoms: _20  and  _21
REMARK    9  A    between atoms: _20  and  _23
REMARK   10  A    between atoms: _23  and  _24
REMARK   11  A    between atoms: _27  and  _29
REMARK   12  A    between atoms: _29  and  _30
REMARK   13  A    between atoms: _29  and  _32
REMARK   14  A    between atoms: _32  and  _33
REMARK   15  A    between atoms: _36  and  _38
REMARK   16  A    between atoms: _38  and  _39
REMARK   17  A    between atoms: _38  and  _41
REMARK   18  A    between atoms: _41  and  _42
REMARK   19  A    between atoms: _45  and  _47
REMARK   20  A    between atoms: _47  and  _48
REMARK   21  A    between atoms: _47  and  _50
REMARK   22  A    between atoms: _50  and  _51
REMARK   23  A    between atoms: _54  and  _56
REMARK   24  A    between atoms: _56  and  _57
REMARK   25  A    between atoms: _56  and  _59
REMARK   26  A    between atoms: _59  and  _60
REMARK   27  A    between atoms: _63  and  _65
REMARK   28  A    between atoms: _65  and  _66
REMARK   29  A    between atoms: _68  and  _70
REMARK   30  A    between atoms: _70  and  _71
REMARK   31  A    between atoms: _74  and  _76
REMARK   32  A    between atoms: _76  and  _77
REMARK   33  A    between atoms: _76  and  _79
REMARK   34  A    between atoms: _79  and  _80
REMARK   35  A    between atoms: _83  and  _85
REMARK   36  A    between atoms: _85  and  _86
REMARK   37  A    between atoms: _85  and  _88
REMARK   38  A    between atoms: _88  and  _89
REMARK   39  A    between atoms: _92  and  _94
REMARK   40  A    between atoms: _94  and  _95
REMARK   41  A    between atoms: _94  and  _97
REMARK   42  A    between atoms: _97  and  _98
REMARK   43  A    between atoms: _101  and  _103
REMARK   44  A    between atoms: _103  and  _104
REMARK   45  A    between atoms: _103  and  _106
REMARK   46  A    between atoms: _109  and  _111
REMARK   47  A    between atoms: _111  and  _112
REMARK   48  A    between atoms: _111  and  _114
REMARK   49  A    between atoms: _114  and  _115
REMARK   50  A    between atoms: _115  and  _116
REMARK   51  A    between atoms: _116  and  _117
REMARK   52  A    between atoms: _117  and  _118
REMARK   53  A    between atoms: _122  and  _124
REMARK   54  A    between atoms: _124  and  _125
REMARK   55  A    between atoms: _124  and  _127
REMARK   56  A    between atoms: _127  and  _128
REMARK   57  A    between atoms: _128  and  _129
REMARK   58  A    between atoms: _131  and  _133
REMARK   59  A    between atoms: _133  and  _134
REMARK   60  A    between atoms: _133  and  _136
REMARK   61  A    between atoms: _136  and  _137
REMARK   62  A    between atoms: _140  and  _142
REMARK   63  A    between atoms: _142  and  _143
REMARK   64  A    between atoms: _145  and  _147
REMARK   65  A    between atoms: _147  and  _148
REMARK   66  A    between atoms: _150  and  _152
REMARK   67  A    between atoms: _152  and  _153
REMARK   68  A    between atoms: _152  and  _155
REMARK   69  A    between atoms: _155  and  _156
REMARK   70  A    between atoms: _159  and  _161
REMARK   71  A    between atoms: _161  and  _162
REMARK   72  A    between atoms: _164  and  _166
REMARK   73  A    between atoms: _166  and  _167
REMARK   74  A    between atoms: _169  and  _171
REMARK   75  A    between atoms: _171  and  _172
REMARK   76  A    between atoms: _171  and  _174
REMARK   77  A    between atoms: _174  and  _175
REMARK   78  A    between atoms: _181  and  _183
REMARK   79  A    between atoms: _183  and  _184
REMARK   80  A    between atoms: _183  and  _186
REMARK   81  A    between atoms: _186  and  _187
REMARK   82  A    between atoms: _190  and  _192
REMARK   83  A    between atoms: _192  and  _193
REMARK   84  A    between atoms: _192  and  _195
REMARK   85  A    between atoms: _198  and  _200
REMARK   86  A    between atoms: _200  and  _201
REMARK   87  A    between atoms: _200  and  _203
REMARK   88  A    between atoms: _203  and  _204
REMARK   89  A    between atoms: _207  and  _209
REMARK   90  A    between atoms: _209  and  _210
REMARK   91  A    between atoms: _209  and  _212
REMARK   92  A    between atoms: _212  and  _213
REMARK   93  A    between atoms: _217  and  _218
REMARK   94  A    between atoms: _223  and  _225
REMARK   95  A    between atoms: _225  and  _226
REMARK   96  A    between atoms: _229  and  _231
REMARK   97  A    between atoms: _231  and  _232
REMARK   98  A    between atoms: _231  and  _234
REMARK   99  A    between atoms: _234  and  _235
REMARK  100  A    between atoms: _240  and  _242
REMARK  101  A    between atoms: _242  and  _243
REMARK  102  A    between atoms: _242  and  _245
REMARK  103  A    between atoms: _245  and  _246
REMARK  104  A    between atoms: _249  and  _251
REMARK  105  A    between atoms: _251  and  _252
REMARK  106  A    between atoms: _251  and  _254
REMARK  107  A    between atoms: _254  and  _255
REMARK  108  A    between atoms: _258  and  _260
REMARK  109  A    between atoms: _260  and  _261
REMARK  110  A    between atoms: _263  and  _265
REMARK  111  A    between atoms: _265  and  _266
REMARK  112  A    between atoms: _265  and  _268
REMARK  113  A    between atoms: _268  and  _269
REMARK  114  A    between atoms: _269  and  _270
REMARK  115  A    between atoms: _270  and  _271
REMARK  116  A    between atoms: _280  and  _282
REMARK  117  A    between atoms: _282  and  _283
REMARK  118  A    between atoms: _282  and  _285
REMARK  119  A    between atoms: _285  and  _286
REMARK  120  A    between atoms: _286  and  _287
REMARK  121  A    between atoms: _287  and  _288
REMARK  122  A    between atoms: _297  and  _299
REMARK  123  A    between atoms: _299  and  _300
REMARK  124  A    between atoms: _299  and  _302
REMARK  125  A    between atoms: _302  and  _303
REMARK  126  A    between atoms: _306  and  _308
REMARK  127  A    between atoms: _308  and  _309
REMARK  128  A    between atoms: _308  and  _311
REMARK  129  A    between atoms: _311  and  _312
REMARK  130  A    between atoms: _315  and  _317
REMARK  131  A    between atoms: _317  and  _318
REMARK  132  A    between atoms: _317  and  _320
REMARK  133  A    between atoms: _320  and  _321
REMARK  134  A    between atoms: _324  and  _326
REMARK  135  A    between atoms: _326  and  _327
REMARK  136  A    between atoms: _326  and  _329
REMARK  137  A    between atoms: _329  and  _330
REMARK  138  A    between atoms: _333  and  _335
REMARK  139  A    between atoms: _335  and  _336
REMARK  140  A    between atoms: _338  and  _340
REMARK  141  A    between atoms: _340  and  _341
REMARK  142  A    between atoms: _344  and  _346
REMARK  143  A    between atoms: _346  and  _347
REMARK  144  A    between atoms: _346  and  _349
REMARK  145  A    between atoms: _349  and  _350
REMARK  146  A    between atoms: _353  and  _355
REMARK  147  A    between atoms: _355  and  _356
REMARK  148  A    between atoms: _355  and  _358
REMARK  149  A    between atoms: _358  and  _359
REMARK  150  A    between atoms: _362  and  _364
REMARK  151  A    between atoms: _364  and  _365
REMARK  152  A    between atoms: _364  and  _367
REMARK  153  A    between atoms: _367  and  _368
REMARK  154  A    between atoms: _371  and  _373
REMARK  155  A    between atoms: _373  and  _374
REMARK  156  A    between atoms: _373  and  _376
REMARK  157  A    between atoms: _379  and  _381
REMARK  158  A    between atoms: _381  and  _382
REMARK  159  A    between atoms: _381  and  _384
REMARK  160  A    between atoms: _384  and  _385
REMARK  161  A    between atoms: _388  and  _390
REMARK  162  A    between atoms: _390  and  _391
REMARK  163  A    between atoms: _390  and  _393
REMARK  164  A    between atoms: _393  and  _394
REMARK  165  A    between atoms: _394  and  _395
REMARK  166  A    between atoms: _395  and  _396
REMARK  167  A    between atoms: _396  and  _397
REMARK  168  A    between atoms: _401  and  _403
REMARK  169  A    between atoms: _403  and  _404
REMARK  170  A    between atoms: _403  and  _406
REMARK  171  A    between atoms: _406  and  _407
REMARK  172  A    between atoms: _407  and  _408
REMARK  173  A    between atoms: _410  and  _412
REMARK  174  A    between atoms: _412  and  _413
REMARK  175  A    between atoms: _412  and  _415
REMARK  176  A    between atoms: _415  and  _416
REMARK  177  A    between atoms: _419  and  _421
REMARK  178  A    between atoms: _421  and  _422
REMARK  179  A    between atoms: _424  and  _426
REMARK  180  A    between atoms: _426  and  _427
REMARK  181  A    between atoms: _429  and  _431
REMARK  182  A    between atoms: _431  and  _432
REMARK  183  A    between atoms: _431  and  _434
REMARK  184  A    between atoms: _434  and  _435
REMARK  185  A    between atoms: _438  and  _440
REMARK  186  A    between atoms: _440  and  _441
REMARK  187  A    between atoms: _443  and  _445
REMARK  188  A    between atoms: _445  and  _446
REMARK  189  A    between atoms: _448  and  _450
REMARK  190  A    between atoms: _450  and  _451
REMARK  191  A    between atoms: _450  and  _453
REMARK  192  A    between atoms: _453  and  _454
REMARK  193  A    between atoms: _460  and  _462
REMARK  194  A    between atoms: _462  and  _463
REMARK  195  A    between atoms: _462  and  _465
REMARK  196  A    between atoms: _465  and  _466
REMARK  197  A    between atoms: _469  and  _471
REMARK  198  A    between atoms: _471  and  _472
REMARK  199  A    between atoms: _471  and  _474
REMARK  200  A    between atoms: _477  and  _479
REMARK  201  A    between atoms: _479  and  _480
REMARK  202  A    between atoms: _479  and  _482
REMARK  203  A    between atoms: _482  and  _483
REMARK  204  A    between atoms: _486  and  _488
REMARK  205  A    between atoms: _488  and  _489
REMARK  206  A    between atoms: _488  and  _491
REMARK  207  A    between atoms: _491  and  _492
REMARK  208  A    between atoms: _496  and  _497
REMARK  209  A    between atoms: _502  and  _504
REMARK  210  A    between atoms: _504  and  _505
REMARK  211  A    between atoms: _508  and  _510
REMARK  212  A    between atoms: _510  and  _511
REMARK  213  A    between atoms: _510  and  _513
REMARK  214  A    between atoms: _513  and  _514
REMARK  215  A    between atoms: _519  and  _521
REMARK  216  A    between atoms: _521  and  _522
REMARK  217  A    between atoms: _521  and  _524
REMARK  218  A    between atoms: _524  and  _525
REMARK  219  A    between atoms: _528  and  _530
REMARK  220  A    between atoms: _530  and  _531
REMARK  221  A    between atoms: _530  and  _533
REMARK  222  A    between atoms: _533  and  _534
REMARK  223  A    between atoms: _537  and  _539
REMARK  224  A    between atoms: _539  and  _540
REMARK  225  A    between atoms: _542  and  _544
REMARK  226  A    between atoms: _544  and  _545
REMARK  227  A    between atoms: _544  and  _547
REMARK  228  A    between atoms: _547  and  _548
REMARK  229  A    between atoms: _548  and  _549
REMARK  230  A    between atoms: _549  and  _550
REMARK  231  A    between atoms: _559  and  _561
REMARK  232  A    between atoms: _561  and  _562
REMARK  233  A    between atoms: _561  and  _564
REMARK  234  A    between atoms: _564  and  _565
REMARK                            x       y       z     vdW  Elec       q    Type
REMARK                         _______ _______ _______ _____ _____    ______ ____
ROOT
ATOM      1  O   HOH     1      15.965  13.010  11.069  0.00  0.00    +0.000 OA
ENDROOT
TORSDOF 0
REMARK  Name = ../refined-set-2016/1sdv/1sdv_pocket.pdb
REMARK  234 active torsions:
REMARK  status: ('A' for Active; 'I' for Inactive)
REMARK    1  A    between atoms: _1  and  _3
REMARK    2  A    between atoms: _3  and  _4
REMARK    3  A    between atoms: _3  and  _6
REMARK    4  A    between atoms: _6  and  _7
REMARK    5  A    between atoms: _7  and  _8
REMARK    6  A    between atoms: _8  and  _9
REMARK    7  A    between atoms: _18  and  _20
REMARK    8  A    between atoms: _20  and  _21
REMARK    9  A    between atoms: _20  and  _23
REMARK   10  A    between atoms: _23  and  _24
REMARK   11  A    between atoms: _27  and  _29
REMARK   12  A    between atoms: _29  and  _30
REMARK   13  A    between atoms: _29  and  _32
REMARK   14  A    between atoms: _32  and  _33
REMARK   15  A    between atoms: _36  and  _38
REMARK   16  A    between atoms: _38  and  _39
REMARK   17  A    between atoms: _38  and  _41
REMARK   18  A    between atoms: _41  and  _42
REMARK   19  A    between atoms: _45  and  _47
REMARK   20  A    between atoms: _47  and  _48
REMARK   21  A    between atoms: _47  and  _50
REMARK   22  A    between atoms: _50  and  _51
REMARK   23  A    between atoms: _54  and  _56
REMARK   24  A    between atoms: _56  and  _57
REMARK   25  A    between atoms: _56  and  _59
REMARK   26  A    between atoms: _59  and  _60
REMARK   27  A    between atoms: _63  and  _65
REMARK   28  A    between atoms: _65  and  _66
REMARK   29  A    between atoms: _68  and  _70
REMARK   30  A    between atoms: _70  and  _71
REMARK   31  A    between atoms: _74  and  _76
REMARK   32  A    between atoms: _76  and  _77
REMARK   33  A    between atoms: _76  and  _79
REMARK   34  A    between atoms: _79  and  _80
REMARK   35  A    between atoms: _83  and  _85
REMARK   36  A    between atoms: _85  and  _86
REMARK   37  A    between atoms: _85  and  _88
REMARK   38  A    between atoms: _88  and  _89
REMARK   39  A    between atoms: _92  and  _94
REMARK   40  A    between atoms: _94  and  _95
REMARK   41  A    between atoms: _94  and  _97
REMARK   42  A    between atoms: _97  and  _98
REMARK   43  A    between atoms: _101  and  _103
REMARK   44  A    between atoms: _103  and  _104
REMARK   45  A    between atoms: _103  and  _106
REMARK   46  A    between atoms: _109  and  _111
REMARK   47  A    between atoms: _111  and  _112
REMARK   48  A    between atoms: _111  and  _114
REMARK   49  A    between atoms: _114  and  _115
REMARK   50  A    between atoms: _115  and  _116
REMARK   51  A    between atoms: _116  and  _117
REMARK   52  A    between atoms: _117  and  _118
REMARK   53  A    between atoms: _122  and  _124
REMARK   54  A    between atoms: _124  and  _125
REMARK   55  A    between atoms: _124  and  _127
REMARK   56  A    between atoms: _127  and  _128
REMARK   57  A    between atoms: _128  and  _129
REMARK   58  A    between atoms: _131  and  _133
REMARK   59  A    between atoms: _133  and  _134
REMARK   60  A    between atoms: _133  and  _136
REMARK   61  A    between atoms: _136  and  _137
REMARK   62  A    between atoms: _140  and  _142
REMARK   63  A    between atoms: _142  and  _143
REMARK   64  A    between atoms: _145  and  _147
REMARK   65  A    between atoms: _147  and  _148
REMARK   66  A    between atoms: _150  and  _152
REMARK   67  A    between atoms: _152  and  _153
REMARK   68  A    between atoms: _152  and  _155
REMARK   69  A    between atoms: _155  and  _156
REMARK   70  A    between atoms: _159  and  _161
REMARK   71  A    between atoms: _161  and  _162
REMARK   72  A    between atoms: _164  and  _166
REMARK   73  A    between atoms: _166  and  _167
REMARK   74  A    between atoms: _169  and  _171
REMARK   75  A    between atoms: _171  and  _172
REMARK   76  A    between atoms: _171  and  _174
REMARK   77  A    between atoms: _174  and  _175
REMARK   78  A    between atoms: _181  and  _183
REMARK   79  A    between atoms: _183  and  _184
REMARK   80  A    between atoms: _183  and  _186
REMARK   81  A    between atoms: _186  and  _187
REMARK   82  A    between atoms: _190  and  _192
REMARK   83  A    between atoms: _192  and  _193
REMARK   84  A    between atoms: _192  and  _195
REMARK   85  A    between atoms: _198  and  _200
REMARK   86  A    between atoms: _200  and  _201
REMARK   87  A    between atoms: _200  and  _203
REMARK   88  A    between atoms: _203  and  _204
REMARK   89  A    between atoms: _207  and  _209
REMARK   90  A    between atoms: _209  and  _210
REMARK   91  A    between atoms: _209  and  _212
REMARK   92  A    between atoms: _212  and  _213
REMARK   93  A    between atoms: _217  and  _218
REMARK   94  A    between atoms: _223  and  _225
REMARK   95  A    between atoms: _225  and  _226
REMARK   96  A    between atoms: _229  and  _231
REMARK   97  A    between atoms: _231  and  _232
REMARK   98  A    between atoms: _231  and  _234
REMARK   99  A    between atoms: _234  and  _235
REMARK  100  A    between atoms: _240  and  _242
REMARK  101  A    between atoms: _242  and  _243
REMARK  102  A    between atoms: _242  and  _245
REMARK  103  A    between atoms: _245  and  _246
REMARK  104  A    between atoms: _249  and  _251
REMARK  105  A    between atoms: _251  and  _252
REMARK  106  A    between atoms: _251  and  _254
REMARK  107  A    between atoms: _254  and  _255
REMARK  108  A    between atoms: _258  and  _260
REMARK  109  A    between atoms: _260  and  _261
REMARK  110  A    between atoms: _263  and  _265
REMARK  111  A    between atoms: _265  and  _266
REMARK  112  A    between atoms: _265  and  _268
REMARK  113  A    between atoms: _268  and  _269
REMARK  114  A    between atoms: _269  and  _270
REMARK  115  A    between atoms: _270  and  _271
REMARK  116  A    between atoms: _280  and  _282
REMARK  117  A    between atoms: _282  and  _283
REMARK  118  A    between atoms: _282  and  _285
REMARK  119  A    between atoms: _285  and  _286
REMARK  120  A    between atoms: _286  and  _287
REMARK  121  A    between atoms: _287  and  _288
REMARK  122  A    between atoms: _297  and  _299
REMARK  123  A    between atoms: _299  and  _300
REMARK  124  A    between atoms: _299  and  _302
REMARK  125  A    between atoms: _302  and  _303
REMARK  126  A    between atoms: _306  and  _308
REMARK  127  A    between atoms: _308  and  _309
REMARK  128  A    between atoms: _308  and  _311
REMARK  129  A    between atoms: _311  and  _312
REMARK  130  A    between atoms: _315  and  _317
REMARK  131  A    between atoms: _317  and  _318
REMARK  132  A    between atoms: _317  and  _320
REMARK  133  A    between atoms: _320  and  _321
REMARK  134  A    between atoms: _324  and  _326
REMARK  135  A    between atoms: _326  and  _327
REMARK  136  A    between atoms: _326  and  _329
REMARK  137  A    between atoms: _329  and  _330
REMARK  138  A    between atoms: _333  and  _335
REMARK  139  A    between atoms: _335  and  _336
REMARK  140  A    between atoms: _338  and  _340
REMARK  141  A    between atoms: _340  and  _341
REMARK  142  A    between atoms: _344  and  _346
REMARK  143  A    between atoms: _346  and  _347
REMARK  144  A    between atoms: _346  and  _349
REMARK  145  A    between atoms: _349  and  _350
REMARK  146  A    between atoms: _353  and  _355
REMARK  147  A    between atoms: _355  and  _356
REMARK  148  A    between atoms: _355  and  _358
REMARK  149  A    between atoms: _358  and  _359
REMARK  150  A    between atoms: _362  and  _364
REMARK  151  A    between atoms: _364  and  _365
REMARK  152  A    between atoms: _364  and  _367
REMARK  153  A    between atoms: _367  and  _368
REMARK  154  A    between atoms: _371  and  _373
REMARK  155  A    between atoms: _373  and  _374
REMARK  156  A    between atoms: _373  and  _376
REMARK  157  A    between atoms: _379  and  _381
REMARK  158  A    between atoms: _381  and  _382
REMARK  159  A    between atoms: _381  and  _384
REMARK  160  A    between atoms: _384  and  _385
REMARK  161  A    between atoms: _388  and  _390
REMARK  162  A    between atoms: _390  and  _391
REMARK  163  A    between atoms: _390  and  _393
REMARK  164  A    between atoms: _393  and  _394
REMARK  165  A    between atoms: _394  and  _395
REMARK  166  A    between atoms: _395  and  _396
REMARK  167  A    between atoms: _396  and  _397
REMARK  168  A    between atoms: _401  and  _403
REMARK  169  A    between atoms: _403  and  _404
REMARK  170  A    between atoms: _403  and  _406
REMARK  171  A    between atoms: _406  and  _407
REMARK  172  A    between atoms: _407  and  _408
REMARK  173  A    between atoms: _410  and  _412
REMARK  174  A    between atoms: _412  and  _413
REMARK  175  A    between atoms: _412  and  _415
REMARK  176  A    between atoms: _415  and  _416
REMARK  177  A    between atoms: _419  and  _421
REMARK  178  A    between atoms: _421  and  _422
REMARK  179  A    between atoms: _424  and  _426
REMARK  180  A    between atoms: _426  and  _427
REMARK  181  A    between atoms: _429  and  _431
REMARK  182  A    between atoms: _431  and  _432
REMARK  183  A    between atoms: _431  and  _434
REMARK  184  A    between atoms: _434  and  _435
REMARK  185  A    between atoms: _438  and  _440
REMARK  186  A    between atoms: _440  and  _441
REMARK  187  A    between atoms: _443  and  _445
REMARK  188  A    between atoms: _445  and  _446
REMARK  189  A    between atoms: _448  and  _450
REMARK  190  A    between atoms: _450  and  _451
REMARK  191  A    between atoms: _450  and  _453
REMARK  192  A    between atoms: _453  and  _454
REMARK  193  A    between atoms: _460  and  _462
REMARK  194  A    between atoms: _462  and  _463
REMARK  195  A    between atoms: _462  and  _465
REMARK  196  A    between atoms: _465  and  _466
REMARK  197  A    between atoms: _469  and  _471
REMARK  198  A    between atoms: _471  and  _472
REMARK  199  A    between atoms: _471  and  _474
REMARK  200  A    between atoms: _477  and  _479
REMARK  201  A    between atoms: _479  and  _480
REMARK  202  A    between atoms: _479  and  _482
REMARK  203  A    between atoms: _482  and  _483
REMARK  204  A    between atoms: _486  and  _488
REMARK  205  A    between atoms: _488  and  _489
REMARK  206  A    between atoms: _488  and  _491
REMARK  207  A    between atoms: _491  and  _492
REMARK  208  A    between atoms: _496  and  _497
REMARK  209  A    between atoms: _502  and  _504
REMARK  210  A    between atoms: _504  and  _505
REMARK  211  A    between atoms: _508  and  _510
REMARK  212  A    between atoms: _510  and  _511
REMARK  213  A    between atoms: _510  and  _513
REMARK  214  A    between atoms: _513  and  _514
REMARK  215  A    between atoms: _519  and  _521
REMARK  216  A    between atoms: _521  and  _522
REMARK  217  A    between atoms: _521  and  _524
REMARK  218  A    between atoms: _524  and  _525
REMARK  219  A    between atoms: _528  and  _530
REMARK  220  A    between atoms: _530  and  _531
REMARK  221  A    between atoms: _530  and  _533
REMARK  222  A    between atoms: _533  and  _534
REMARK  223  A    between atoms: _537  and  _539
REMARK  224  A    between atoms: _539  and  _540
REMARK  225  A    between atoms: _542  and  _544
REMARK  226  A    between atoms: _544  and  _545
REMARK  227  A    between atoms: _544  and  _547
REMARK  228  A    between atoms: _547  and  _548
REMARK  229  A    between atoms: _548  and  _549
REMARK  230  A    between atoms: _549  and  _550
REMARK  231  A    between atoms: _559  and  _561
REMARK  232  A    between atoms: _561  and  _562
REMARK  233  A    between atoms: _561  and  _564
REMARK  234  A    between atoms: _564  and  _565
REMARK                            x       y       z     vdW  Elec       q    Type
REMARK                         _______ _______ _______ _____ _____    ______ ____
ROOT
ATOM      1  O   HOH     1      15.656   5.565   2.442  0.00  0.00    +0.000 OA
ENDROOT
TORSDOF 0
REMARK  Name = ../refined-set-2016/1sdv/1sdv_pocket.pdb
REMARK  234 active torsions:
REMARK  status: ('A' for Active; 'I' for Inactive)
REMARK    1  A    between atoms: _1  and  _3
REMARK    2  A    between atoms: _3  and  _4
REMARK    3  A    between atoms: _3  and  _6
REMARK    4  A    between atoms: _6  and  _7
REMARK    5  A    between atoms: _7  and  _8
REMARK    6  A    between atoms: _8  and  _9
REMARK    7  A    between atoms: _18  and  _20
REMARK    8  A    between atoms: _20  and  _21
REMARK    9  A    between atoms: _20  and  _23
REMARK   10  A    between atoms: _23  and  _24
REMARK   11  A    between atoms: _27  and  _29
REMARK   12  A    between atoms: _29  and  _30
REMARK   13  A    between atoms: _29  and  _32
REMARK   14  A    between atoms: _32  and  _33
REMARK   15  A    between atoms: _36  and  _38
REMARK   16  A    between atoms: _38  and  _39
REMARK   17  A    between atoms: _38  and  _41
REMARK   18  A    between atoms: _41  and  _42
REMARK   19  A    between atoms: _45  and  _47
REMARK   20  A    between atoms: _47  and  _48
REMARK   21  A    between atoms: _47  and  _50
REMARK   22  A    between atoms: _50  and  _51
REMARK   23  A    between atoms: _54  and  _56
REMARK   24  A    between atoms: _56  and  _57
REMARK   25  A    between atoms: _56  and  _59
REMARK   26  A    between atoms: _59  and  _60
REMARK   27  A    between atoms: _63  and  _65
REMARK   28  A    between atoms: _65  and  _66
REMARK   29  A    between atoms: _68  and  _70
REMARK   30  A    between atoms: _70  and  _71
REMARK   31  A    between atoms: _74  and  _76
REMARK   32  A    between atoms: _76  and  _77
REMARK   33  A    between atoms: _76  and  _79
REMARK   34  A    between atoms: _79  and  _80
REMARK   35  A    between atoms: _83  and  _85
REMARK   36  A    between atoms: _85  and  _86
REMARK   37  A    between atoms: _85  and  _88
REMARK   38  A    between atoms: _88  and  _89
REMARK   39  A    between atoms: _92  and  _94
REMARK   40  A    between atoms: _94  and  _95
REMARK   41  A    between atoms: _94  and  _97
REMARK   42  A    between atoms: _97  and  _98
REMARK   43  A    between atoms: _101  and  _103
REMARK   44  A    between atoms: _103  and  _104
REMARK   45  A    between atoms: _103  and  _106
REMARK   46  A    between atoms: _109  and  _111
REMARK   47  A    between atoms: _111  and  _112
REMARK   48  A    between atoms: _111  and  _114
REMARK   49  A    between atoms: _114  and  _115
REMARK   50  A    between atoms: _115  and  _116
REMARK   51  A    between atoms: _116  and  _117
REMARK   52  A    between atoms: _117  and  _118
REMARK   53  A    between atoms: _122  and  _124
REMARK   54  A    between atoms: _124  and  _125
REMARK   55  A    between atoms: _124  and  _127
REMARK   56  A    between atoms: _127  and  _128
REMARK   57  A    between atoms: _128  and  _129
REMARK   58  A    between atoms: _131  and  _133
REMARK   59  A    between atoms: _133  and  _134
REMARK   60  A    between atoms: _133  and  _136
REMARK   61  A    between atoms: _136  and  _137
REMARK   62  A    between atoms: _140  and  _142
REMARK   63  A    between atoms: _142  and  _143
REMARK   64  A    between atoms: _145  and  _147
REMARK   65  A    between atoms: _147  and  _148
REMARK   66  A    between atoms: _150  and  _152
REMARK   67  A    between atoms: _152  and  _153
REMARK   68  A    between atoms: _152  and  _155
REMARK   69  A    between atoms: _155  and  _156
REMARK   70  A    between atoms: _159  and  _161
REMARK   71  A    between atoms: _161  and  _162
REMARK   72  A    between atoms: _164  and  _166
REMARK   73  A    between atoms: _166  and  _167
REMARK   74  A    between atoms: _169  and  _171
REMARK   75  A    between atoms: _171  and  _172
REMARK   76  A    between atoms: _171  and  _174
REMARK   77  A    between atoms: _174  and  _175
REMARK   78  A    between atoms: _181  and  _183
REMARK   79  A    between atoms: _183  and  _184
REMARK   80  A    between atoms: _183  and  _186
REMARK   81  A    between atoms: _186  and  _187
REMARK   82  A    between atoms: _190  and  _192
REMARK   83  A    between atoms: _192  and  _193
REMARK   84  A    between atoms: _192  and  _195
REMARK   85  A    between atoms: _198  and  _200
REMARK   86  A    between atoms: _200  and  _201
REMARK   87  A    between atoms: _200  and  _203
REMARK   88  A    between atoms: _203  and  _204
REMARK   89  A    between atoms: _207  and  _209
REMARK   90  A    between atoms: _209  and  _210
REMARK   91  A    between atoms: _209  and  _212
REMARK   92  A    between atoms: _212  and  _213
REMARK   93  A    between atoms: _217  and  _218
REMARK   94  A    between atoms: _223  and  _225
REMARK   95  A    between atoms: _225  and  _226
REMARK   96  A    between atoms: _229  and  _231
REMARK   97  A    between atoms: _231  and  _232
REMARK   98  A    between atoms: _231  and  _234
REMARK   99  A    between atoms: _234  and  _235
REMARK  100  A    between atoms: _240  and  _242
REMARK  101  A    between atoms: _242  and  _243
REMARK  102  A    between atoms: _242  and  _245
REMARK  103  A    between atoms: _245  and  _246
REMARK  104  A    between atoms: _249  and  _251
REMARK  105  A    between atoms: _251  and  _252
REMARK  106  A    between atoms: _251  and  _254
REMARK  107  A    between atoms: _254  and  _255
REMARK  108  A    between atoms: _258  and  _260
REMARK  109  A    between atoms: _260  and  _261
REMARK  110  A    between atoms: _263  and  _265
REMARK  111  A    between atoms: _265  and  _266
REMARK  112  A    between atoms: _265  and  _268
REMARK  113  A    between atoms: _268  and  _269
REMARK  114  A    between atoms: _269  and  _270
REMARK  115  A    between atoms: _270  and  _271
REMARK  116  A    between atoms: _280  and  _282
REMARK  117  A    between atoms: _282  and  _283
REMARK  118  A    between atoms: _282  and  _285
REMARK  119  A    between atoms: _285  and  _286
REMARK  120  A    between atoms: _286  and  _287
REMARK  121  A    between atoms: _287  and  _288
REMARK  122  A    between atoms: _297  and  _299
REMARK  123  A    between atoms: _299  and  _300
REMARK  124  A    between atoms: _299  and  _302
REMARK  125  A    between atoms: _302  and  _303
REMARK  126  A    between atoms: _306  and  _308
REMARK  127  A    between atoms: _308  and  _309
REMARK  128  A    between atoms: _308  and  _311
REMARK  129  A    between atoms: _311  and  _312
REMARK  130  A    between atoms: _315  and  _317
REMARK  131  A    between atoms: _317  and  _318
REMARK  132  A    between atoms: _317  and  _320
REMARK  133  A    between atoms: _320  and  _321
REMARK  134  A    between atoms: _324  and  _326
REMARK  135  A    between atoms: _326  and  _327
REMARK  136  A    between atoms: _326  and  _329
REMARK  137  A    between atoms: _329  and  _330
REMARK  138  A    between atoms: _333  and  _335
REMARK  139  A    between atoms: _335  and  _336
REMARK  140  A    between atoms: _338  and  _340
REMARK  141  A    between atoms: _340  and  _341
REMARK  142  A    between atoms: _344  and  _346
REMARK  143  A    between atoms: _346  and  _347
REMARK  144  A    between atoms: _346  and  _349
REMARK  145  A    between atoms: _349  and  _350
REMARK  146  A    between atoms: _353  and  _355
REMARK  147  A    between atoms: _355  and  _356
REMARK  148  A    between atoms: _355  and  _358
REMARK  149  A    between atoms: _358  and  _359
REMARK  150  A    between atoms: _362  and  _364
REMARK  151  A    between atoms: _364  and  _365
REMARK  152  A    between atoms: _364  and  _367
REMARK  153  A    between atoms: _367  and  _368
REMARK  154  A    between atoms: _371  and  _373
REMARK  155  A    between atoms: _373  and  _374
REMARK  156  A    between atoms: _373  and  _376
REMARK  157  A    between atoms: _379  and  _381
REMARK  158  A    between atoms: _381  and  _382
REMARK  159  A    between atoms: _381  and  _384
REMARK  160  A    between atoms: _384  and  _385
REMARK  161  A    between atoms: _388  and  _390
REMARK  162  A    between atoms: _390  and  _391
REMARK  163  A    between atoms: _390  and  _393
REMARK  164  A    between atoms: _393  and  _394
REMARK  165  A    between atoms: _394  and  _395
REMARK  166  A    between atoms: _395  and  _396
REMARK  167  A    between atoms: _396  and  _397
REMARK  168  A    between atoms: _401  and  _403
REMARK  169  A    between atoms: _403  and  _404
REMARK  170  A    between atoms: _403  and  _406
REMARK  171  A    between atoms: _406  and  _407
REMARK  172  A    between atoms: _407  and  _408
REMARK  173  A    between atoms: _410  and  _412
REMARK  174  A    between atoms: _412  and  _413
REMARK  175  A    between atoms: _412  and  _415
REMARK  176  A    between atoms: _415  and  _416
REMARK  177  A    between atoms: _419  and  _421
REMARK  178  A    between atoms: _421  and  _422
REMARK  179  A    between atoms: _424  and  _426
REMARK  180  A    between atoms: _426  and  _427
REMARK  181  A    between atoms: _429  and  _431
REMARK  182  A    between atoms: _431  and  _432
REMARK  183  A    between atoms: _431  and  _434
REMARK  184  A    between atoms: _434  and  _435
REMARK  185  A    between atoms: _438  and  _440
REMARK  186  A    between atoms: _440  and  _441
REMARK  187  A    between atoms: _443  and  _445
REMARK  188  A    between atoms: _445  and  _446
REMARK  189  A    between atoms: _448  and  _450
REMARK  190  A    between atoms: _450  and  _451
REMARK  191  A    between atoms: _450  and  _453
REMARK  192  A    between atoms: _453  and  _454
REMARK  193  A    between atoms: _460  and  _462
REMARK  194  A    between atoms: _462  and  _463
REMARK  195  A    between atoms: _462  and  _465
REMARK  196  A    between atoms: _465  and  _466
REMARK  197  A    between atoms: _469  and  _471
REMARK  198  A    between atoms: _471  and  _472
REMARK  199  A    between atoms: _471  and  _474
REMARK  200  A    between atoms: _477  and  _479
REMARK  201  A    between atoms: _479  and  _480
REMARK  202  A    between atoms: _479  and  _482
REMARK  203  A    between atoms: _482  and  _483
REMARK  204  A    between atoms: _486  and  _488
REMARK  205  A    between atoms: _488  and  _489
REMARK  206  A    between atoms: _488  and  _491
REMARK  207  A    between atoms: _491  and  _492
REMARK  208  A    between atoms: _496  and  _497
REMARK  209  A    between atoms: _502  and  _504
REMARK  210  A    between atoms: _504  and  _505
REMARK  211  A    between atoms: _508  and  _510
REMARK  212  A    between atoms: _510  and  _511
REMARK  213  A    between atoms: _510  and  _513
REMARK  214  A    between atoms: _513  and  _514
REMARK  215  A    between atoms: _519  and  _521
REMARK  216  A    between atoms: _521  and  _522
REMARK  217  A    between atoms: _521  and  _524
REMARK  218  A    between atoms: _524  and  _525
REMARK  219  A    between atoms: _528  and  _530
REMARK  220  A    between atoms: _530  and  _531
REMARK  221  A    between atoms: _530  and  _533
REMARK  222  A    between atoms: _533  and  _534
REMARK  223  A    between atoms: _537  and  _539
REMARK  224  A    between atoms: _539  and  _540
REMARK  225  A    between atoms: _542  and  _544
REMARK  226  A    between atoms: _544  and  _545
REMARK  227  A    between atoms: _544  and  _547
REMARK  228  A    between atoms: _547  and  _548
REMARK  229  A    between atoms: _548  and  _549
REMARK  230  A    between atoms: _549  and  _550
REMARK  231  A    between atoms: _559  and  _561
REMARK  232  A    between atoms: _561  and  _562
REMARK  233  A    between atoms: _561  and  _564
REMARK  234  A    between atoms: _564  and  _565
REMARK                            x       y       z     vdW  Elec       q    Type
REMARK                         _______ _______ _______ _____ _____    ______ ____
ROOT
ATOM      1  O   HOH     1      25.678  22.106   0.091  0.00  0.00    +0.000 OA
ENDROOT
TORSDOF 0
REMARK  Name = ../refined-set-2016/1sdv/1sdv_pocket.pdb
REMARK  234 active torsions:
REMARK  status: ('A' for Active; 'I' for Inactive)
REMARK    1  A    between atoms: _1  and  _3
REMARK    2  A    between atoms: _3  and  _4
REMARK    3  A    between atoms: _3  and  _6
REMARK    4  A    between atoms: _6  and  _7
REMARK    5  A    between atoms: _7  and  _8
REMARK    6  A    between atoms: _8  and  _9
REMARK    7  A    between atoms: _18  and  _20
REMARK    8  A    between atoms: _20  and  _21
REMARK    9  A    between atoms: _20  and  _23
REMARK   10  A    between atoms: _23  and  _24
REMARK   11  A    between atoms: _27  and  _29
REMARK   12  A    between atoms: _29  and  _30
REMARK   13  A    between atoms: _29  and  _32
REMARK   14  A    between atoms: _32  and  _33
REMARK   15  A    between atoms: _36  and  _38
REMARK   16  A    between atoms: _38  and  _39
REMARK   17  A    between atoms: _38  and  _41
REMARK   18  A    between atoms: _41  and  _42
REMARK   19  A    between atoms: _45  and  _47
REMARK   20  A    between atoms: _47  and  _48
REMARK   21  A    between atoms: _47  and  _50
REMARK   22  A    between atoms: _50  and  _51
REMARK   23  A    between atoms: _54  and  _56
REMARK   24  A    between atoms: _56  and  _57
REMARK   25  A    between atoms: _56  and  _59
REMARK   26  A    between atoms: _59  and  _60
REMARK   27  A    between atoms: _63  and  _65
REMARK   28  A    between atoms: _65  and  _66
REMARK   29  A    between atoms: _68  and  _70
REMARK   30  A    between atoms: _70  and  _71
REMARK   31  A    between atoms: _74  and  _76
REMARK   32  A    between atoms: _76  and  _77
REMARK   33  A    between atoms: _76  and  _79
REMARK   34  A    between atoms: _79  and  _80
REMARK   35  A    between atoms: _83  and  _85
REMARK   36  A    between atoms: _85  and  _86
REMARK   37  A    between atoms: _85  and  _88
REMARK   38  A    between atoms: _88  and  _89
REMARK   39  A    between atoms: _92  and  _94
REMARK   40  A    between atoms: _94  and  _95
REMARK   41  A    between atoms: _94  and  _97
REMARK   42  A    between atoms: _97  and  _98
REMARK   43  A    between atoms: _101  and  _103
REMARK   44  A    between atoms: _103  and  _104
REMARK   45  A    between atoms: _103  and  _106
REMARK   46  A    between atoms: _109  and  _111
REMARK   47  A    between atoms: _111  and  _112
REMARK   48  A    between atoms: _111  and  _114
REMARK   49  A    between atoms: _114  and  _115
REMARK   50  A    between atoms: _115  and  _116
REMARK   51  A    between atoms: _116  and  _117
REMARK   52  A    between atoms: _117  and  _118
REMARK   53  A    between atoms: _122  and  _124
REMARK   54  A    between atoms: _124  and  _125
REMARK   55  A    between atoms: _124  and  _127
REMARK   56  A    between atoms: _127  and  _128
REMARK   57  A    between atoms: _128  and  _129
REMARK   58  A    between atoms: _131  and  _133
REMARK   59  A    between atoms: _133  and  _134
REMARK   60  A    between atoms: _133  and  _136
REMARK   61  A    between atoms: _136  and  _137
REMARK   62  A    between atoms: _140  and  _142
REMARK   63  A    between atoms: _142  and  _143
REMARK   64  A    between atoms: _145  and  _147
REMARK   65  A    between atoms: _147  and  _148
REMARK   66  A    between atoms: _150  and  _152
REMARK   67  A    between atoms: _152  and  _153
REMARK   68  A    between atoms: _152  and  _155
REMARK   69  A    between atoms: _155  and  _156
REMARK   70  A    between atoms: _159  and  _161
REMARK   71  A    between atoms: _161  and  _162
REMARK   72  A    between atoms: _164  and  _166
REMARK   73  A    between atoms: _166  and  _167
REMARK   74  A    between atoms: _169  and  _171
REMARK   75  A    between atoms: _171  and  _172
REMARK   76  A    between atoms: _171  and  _174
REMARK   77  A    between atoms: _174  and  _175
REMARK   78  A    between atoms: _181  and  _183
REMARK   79  A    between atoms: _183  and  _184
REMARK   80  A    between atoms: _183  and  _186
REMARK   81  A    between atoms: _186  and  _187
REMARK   82  A    between atoms: _190  and  _192
REMARK   83  A    between atoms: _192  and  _193
REMARK   84  A    between atoms: _192  and  _195
REMARK   85  A    between atoms: _198  and  _200
REMARK   86  A    between atoms: _200  and  _201
REMARK   87  A    between atoms: _200  and  _203
REMARK   88  A    between atoms: _203  and  _204
REMARK   89  A    between atoms: _207  and  _209
REMARK   90  A    between atoms: _209  and  _210
REMARK   91  A    between atoms: _209  and  _212
REMARK   92  A    between atoms: _212  and  _213
REMARK   93  A    between atoms: _217  and  _218
REMARK   94  A    between atoms: _223  and  _225
REMARK   95  A    between atoms: _225  and  _226
REMARK   96  A    between atoms: _229  and  _231
REMARK   97  A    between atoms: _231  and  _232
REMARK   98  A    between atoms: _231  and  _234
REMARK   99  A    between atoms: _234  and  _235
REMARK  100  A    between atoms: _240  and  _242
REMARK  101  A    between atoms: _242  and  _243
REMARK  102  A    between atoms: _242  and  _245
REMARK  103  A    between atoms: _245  and  _246
REMARK  104  A    between atoms: _249  and  _251
REMARK  105  A    between atoms: _251  and  _252
REMARK  106  A    between atoms: _251  and  _254
REMARK  107  A    between atoms: _254  and  _255
REMARK  108  A    between atoms: _258  and  _260
REMARK  109  A    between atoms: _260  and  _261
REMARK  110  A    between atoms: _263  and  _265
REMARK  111  A    between atoms: _265  and  _266
REMARK  112  A    between atoms: _265  and  _268
REMARK  113  A    between atoms: _268  and  _269
REMARK  114  A    between atoms: _269  and  _270
REMARK  115  A    between atoms: _270  and  _271
REMARK  116  A    between atoms: _280  and  _282
REMARK  117  A    between atoms: _282  and  _283
REMARK  118  A    between atoms: _282  and  _285
REMARK  119  A    between atoms: _285  and  _286
REMARK  120  A    between atoms: _286  and  _287
REMARK  121  A    between atoms: _287  and  _288
REMARK  122  A    between atoms: _297  and  _299
REMARK  123  A    between atoms: _299  and  _300
REMARK  124  A    between atoms: _299  and  _302
REMARK  125  A    between atoms: _302  and  _303
REMARK  126  A    between atoms: _306  and  _308
REMARK  127  A    between atoms: _308  and  _309
REMARK  128  A    between atoms: _308  and  _311
REMARK  129  A    between atoms: _311  and  _312
REMARK  130  A    between atoms: _315  and  _317
REMARK  131  A    between atoms: _317  and  _318
REMARK  132  A    between atoms: _317  and  _320
REMARK  133  A    between atoms: _320  and  _321
REMARK  134  A    between atoms: _324  and  _326
REMARK  135  A    between atoms: _326  and  _327
REMARK  136  A    between atoms: _326  and  _329
REMARK  137  A    between atoms: _329  and  _330
REMARK  138  A    between atoms: _333  and  _335
REMARK  139  A    between atoms: _335  and  _336
REMARK  140  A    between atoms: _338  and  _340
REMARK  141  A    between atoms: _340  and  _341
REMARK  142  A    between atoms: _344  and  _346
REMARK  143  A    between atoms: _346  and  _347
REMARK  144  A    between atoms: _346  and  _349
REMARK  145  A    between atoms: _349  and  _350
REMARK  146  A    between atoms: _353  and  _355
REMARK  147  A    between atoms: _355  and  _356
REMARK  148  A    between atoms: _355  and  _358
REMARK  149  A    between atoms: _358  and  _359
REMARK  150  A    between atoms: _362  and  _364
REMARK  151  A    between atoms: _364  and  _365
REMARK  152  A    between atoms: _364  and  _367
REMARK  153  A    between atoms: _367  and  _368
REMARK  154  A    between atoms: _371  and  _373
REMARK  155  A    between atoms: _373  and  _374
REMARK  156  A    between atoms: _373  and  _376
REMARK  157  A    between atoms: _379  and  _381
REMARK  158  A    between atoms: _381  and  _382
REMARK  159  A    between atoms: _381  and  _384
REMARK  160  A    between atoms: _384  and  _385
REMARK  161  A    between atoms: _388  and  _390
REMARK  162  A    between atoms: _390  and  _391
REMARK  163  A    between atoms: _390  and  _393
REMARK  164  A    between atoms: _393  and  _394
REMARK  165  A    between atoms: _394  and  _395
REMARK  166  A    between atoms: _395  and  _396
REMARK  167  A    between atoms: _396  and  _397
REMARK  168  A    between atoms: _401  and  _403
REMARK  169  A    between atoms: _403  and  _404
REMARK  170  A    between atoms: _403  and  _406
REMARK  171  A    between atoms: _406  and  _407
REMARK  172  A    between atoms: _407  and  _408
REMARK  173  A    between atoms: _410  and  _412
REMARK  174  A    between atoms: _412  and  _413
REMARK  175  A    between atoms: _412  and  _415
REMARK  176  A    between atoms: _415  and  _416
REMARK  177  A    between atoms: _419  and  _421
REMARK  178  A    between atoms: _421  and  _422
REMARK  179  A    between atoms: _424  and  _426
REMARK  180  A    between atoms: _426  and  _427
REMARK  181  A    between atoms: _429  and  _431
REMARK  182  A    between atoms: _431  and  _432
REMARK  183  A    between atoms: _431  and  _434
REMARK  184  A    between atoms: _434  and  _435
REMARK  185  A    between atoms: _438  and  _440
REMARK  186  A    between atoms: _440  and  _441
REMARK  187  A    between atoms: _443  and  _445
REMARK  188  A    between atoms: _445  and  _446
REMARK  189  A    between atoms: _448  and  _450
REMARK  190  A    between atoms: _450  and  _451
REMARK  191  A    between atoms: _450  and  _453
REMARK  192  A    between atoms: _453  and  _454
REMARK  193  A    between atoms: _460  and  _462
REMARK  194  A    between atoms: _462  and  _463
REMARK  195  A    between atoms: _462  and  _465
REMARK  196  A    between atoms: _465  and  _466
REMARK  197  A    between atoms: _469  and  _471
REMARK  198  A    between atoms: _471  and  _472
REMARK  199  A    between atoms: _471  and  _474
REMARK  200  A    between atoms: _477  and  _479
REMARK  201  A    between atoms: _479  and  _480
REMARK  202  A    between atoms: _479  and  _482
REMARK  203  A    between atoms: _482  and  _483
REMARK  204  A    between atoms: _486  and  _488
REMARK  205  A    between atoms: _488  and  _489
REMARK  206  A    between atoms: _488  and  _491
REMARK  207  A    between atoms: _491  and  _492
REMARK  208  A    between atoms: _496  and  _497
REMARK  209  A    between atoms: _502  and  _504
REMARK  210  A    between atoms: _504  and  _505
REMARK  211  A    between atoms: _508  and  _510
REMARK  212  A    between atoms: _510  and  _511
REMARK  213  A    between atoms: _510  and  _513
REMARK  214  A    between atoms: _513  and  _514
REMARK  215  A    between atoms: _519  and  _521
REMARK  216  A    between atoms: _521  and  _522
REMARK  217  A    between atoms: _521  and  _524
REMARK  218  A    between atoms: _524  and  _525
REMARK  219  A    between atoms: _528  and  _530
REMARK  220  A    between atoms: _530  and  _531
REMARK  221  A    between atoms: _530  and  _533
REMARK  222  A    between atoms: _533  and  _534
REMARK  223  A    between atoms: _537  and  _539
REMARK  224  A    between atoms: _539  and  _540
REMARK  225  A    between atoms: _542  and  _544
REMARK  226  A    between atoms: _544  and  _545
REMARK  227  A    between atoms: _544  and  _547
REMARK  228  A    between atoms: _547  and  _548
REMARK  229  A    between atoms: _548  and  _549
REMARK  230  A    between atoms: _549  and  _550
REMARK  231  A    between atoms: _559  and  _561
REMARK  232  A    between atoms: _561  and  _562
REMARK  233  A    between atoms: _561  and  _564
REMARK  234  A    between atoms: _564  and  _565
REMARK                            x       y       z     vdW  Elec       q    Type
REMARK                         _______ _______ _______ _____ _____    ______ ____
ROOT
ATOM      1  O   HOH     1      28.041  23.688  -2.856  0.00  0.00    +0.000 OA
ENDROOT
TORSDOF 0
