REMARK  Name = ../refined-set-2016/3t8v/3t8v_pocket.pdb
REMARK  279 active torsions:
REMARK  status: ('A' for Active; 'I' for Inactive)
REMARK    1  A    between atoms: _1  and  _3
REMARK    2  A    between atoms: _3  and  _4
REMARK    3  A    between atoms: _7  and  _9
REMARK    4  A    between atoms: _9  and  _10
REMARK    5  A    between atoms: _9  and  _12
REMARK    6  A    between atoms: _12  and  _13
REMARK    7  A    between atoms: _16  and  _18
REMARK    8  A    between atoms: _18  and  _19
REMARK    9  A    between atoms: _18  and  _21
REMARK   10  A    between atoms: _21  and  _22
REMARK   11  A    between atoms: _25  and  _27
REMARK   12  A    between atoms: _27  and  _28
REMARK   13  A    between atoms: _27  and  _30
REMARK   14  A    between atoms: _30  and  _31
REMARK   15  A    between atoms: _31  and  _32
REMARK   16  A    between atoms: _37  and  _39
REMARK   17  A    between atoms: _39  and  _40
REMARK   18  A    between atoms: _39  and  _42
REMARK   19  A    between atoms: _44  and  _46
REMARK   20  A    between atoms: _46  and  _47
REMARK   21  A    between atoms: _46  and  _49
REMARK   22  A    between atoms: _49  and  _50
REMARK   23  A    between atoms: _50  and  _51
REMARK   24  A    between atoms: _54  and  _56
REMARK   25  A    between atoms: _56  and  _57
REMARK   26  A    between atoms: _60  and  _62
REMARK   27  A    between atoms: _62  and  _63
REMARK   28  A    between atoms: _62  and  _65
REMARK   29  A    between atoms: _65  and  _66
REMARK   30  A    between atoms: _69  and  _71
REMARK   31  A    between atoms: _71  and  _72
REMARK   32  A    between atoms: _74  and  _76
REMARK   33  A    between atoms: _76  and  _77
REMARK   34  A    between atoms: _76  and  _79
REMARK   35  A    between atoms: _79  and  _80
REMARK   36  A    between atoms: _85  and  _86
REMARK   37  A    between atoms: _88  and  _90
REMARK   38  A    between atoms: _90  and  _91
REMARK   39  A    between atoms: _90  and  _93
REMARK   40  A    between atoms: _93  and  _94
REMARK   41  A    between atoms: _100  and  _102
REMARK   42  A    between atoms: _102  and  _103
REMARK   43  A    between atoms: _102  and  _105
REMARK   44  A    between atoms: _105  and  _106
REMARK   45  A    between atoms: _111  and  _113
REMARK   46  A    between atoms: _113  and  _114
REMARK   47  A    between atoms: _113  and  _116
REMARK   48  A    between atoms: _119  and  _121
REMARK   49  A    between atoms: _121  and  _122
REMARK   50  A    between atoms: _124  and  _126
REMARK   51  A    between atoms: _126  and  _127
REMARK   52  A    between atoms: _130  and  _132
REMARK   53  A    between atoms: _132  and  _133
REMARK   54  A    between atoms: _132  and  _135
REMARK   55  A    between atoms: _135  and  _136
REMARK   56  A    between atoms: _136  and  _137
REMARK   57  A    between atoms: _139  and  _141
REMARK   58  A    between atoms: _141  and  _142
REMARK   59  A    between atoms: _141  and  _144
REMARK   60  A    between atoms: _144  and  _145
REMARK   61  A    between atoms: _145  and  _146
REMARK   62  A    between atoms: _149  and  _151
REMARK   63  A    between atoms: _151  and  _152
REMARK   64  A    between atoms: _151  and  _154
REMARK   65  A    between atoms: _154  and  _155
REMARK   66  A    between atoms: _160  and  _162
REMARK   67  A    between atoms: _162  and  _163
REMARK   68  A    between atoms: _162  and  _165
REMARK   69  A    between atoms: _165  and  _166
REMARK   70  A    between atoms: _169  and  _171
REMARK   71  A    between atoms: _171  and  _172
REMARK   72  A    between atoms: _171  and  _174
REMARK   73  A    between atoms: _174  and  _175
REMARK   74  A    between atoms: _181  and  _183
REMARK   75  A    between atoms: _183  and  _184
REMARK   76  A    between atoms: _183  and  _186
REMARK   77  A    between atoms: _186  and  _187
REMARK   78  A    between atoms: _192  and  _194
REMARK   79  A    between atoms: _194  and  _195
REMARK   80  A    between atoms: _194  and  _197
REMARK   81  A    between atoms: _197  and  _198
REMARK   82  A    between atoms: _203  and  _205
REMARK   83  A    between atoms: _205  and  _206
REMARK   84  A    between atoms: _205  and  _208
REMARK   85  A    between atoms: _208  and  _209
REMARK   86  A    between atoms: _211  and  _213
REMARK   87  A    between atoms: _213  and  _214
REMARK   88  A    between atoms: _213  and  _216
REMARK   89  A    between atoms: _216  and  _217
REMARK   90  A    between atoms: _217  and  _218
REMARK   91  A    between atoms: _218  and  _219
REMARK   92  A    between atoms: _228  and  _230
REMARK   93  A    between atoms: _230  and  _231
REMARK   94  A    between atoms: _230  and  _233
REMARK   95  A    between atoms: _233  and  _234
REMARK   96  A    between atoms: _237  and  _239
REMARK   97  A    between atoms: _239  and  _240
REMARK   98  A    between atoms: _239  and  _242
REMARK   99  A    between atoms: _245  and  _247
REMARK  100  A    between atoms: _247  and  _248
REMARK  101  A    between atoms: _247  and  _250
REMARK  102  A    between atoms: _253  and  _255
REMARK  103  A    between atoms: _255  and  _256
REMARK  104  A    between atoms: _258  and  _260
REMARK  105  A    between atoms: _260  and  _261
REMARK  106  A    between atoms: _260  and  _263
REMARK  107  A    between atoms: _263  and  _264
REMARK  108  A    between atoms: _268  and  ZN_679
REMARK  109  A    between atoms: _269  and  _271
REMARK  110  A    between atoms: _271  and  _272
REMARK  111  A    between atoms: _271  and  _274
REMARK  112  A    between atoms: _274  and  _275
REMARK  113  A    between atoms: _275  and  _276
REMARK  114  A    between atoms: _279  and  _281
REMARK  115  A    between atoms: _281  and  _282
REMARK  116  A    between atoms: _281  and  _284
REMARK  117  A    between atoms: _284  and  _285
REMARK  118  A    between atoms: _290  and  _291
REMARK  119  A    between atoms: _293  and  _295
REMARK  120  A    between atoms: _295  and  _296
REMARK  121  A    between atoms: _295  and  _298
REMARK  122  A    between atoms: _298  and  _299
REMARK  123  A    between atoms: _303  and  ZN_679
REMARK  124  A    between atoms: _304  and  _306
REMARK  125  A    between atoms: _306  and  _307
REMARK  126  A    between atoms: _306  and  _309
REMARK  127  A    between atoms: _309  and  _310
REMARK  128  A    between atoms: _320  and  _322
REMARK  129  A    between atoms: _322  and  _323
REMARK  130  A    between atoms: _322  and  _325
REMARK  131  A    between atoms: _325  and  _326
REMARK  132  A    between atoms: _329  and  _331
REMARK  133  A    between atoms: _331  and  _332
REMARK  134  A    between atoms: _331  and  _334
REMARK  135  A    between atoms: _334  and  _335
REMARK  136  A    between atoms: _335  and  _336
REMARK  137  A    between atoms: _336  and  _337
REMARK  138  A    between atoms: _337  and  _338
REMARK  139  A    between atoms: _342  and  _344
REMARK  140  A    between atoms: _344  and  _345
REMARK  141  A    between atoms: _344  and  _347
REMARK  142  A    between atoms: _347  and  _348
REMARK  143  A    between atoms: _348  and  _349
REMARK  144  A    between atoms: _349  and  _350
REMARK  145  A    between atoms: _350  and  ZN_679
REMARK  146  A    between atoms: _352  and  _354
REMARK  147  A    between atoms: _354  and  _355
REMARK  148  A    between atoms: _354  and  _357
REMARK  149  A    between atoms: _357  and  _358
REMARK  150  A    between atoms: _361  and  _363
REMARK  151  A    between atoms: _363  and  _364
REMARK  152  A    between atoms: _363  and  _366
REMARK  153  A    between atoms: _369  and  _371
REMARK  154  A    between atoms: _371  and  _372
REMARK  155  A    between atoms: _371  and  _374
REMARK  156  A    between atoms: _374  and  _375
REMARK  157  A    between atoms: _375  and  _376
REMARK  158  A    between atoms: _379  and  _381
REMARK  159  A    between atoms: _381  and  _382
REMARK  160  A    between atoms: _381  and  _384
REMARK  161  A    between atoms: _384  and  _385
REMARK  162  A    between atoms: _385  and  _386
REMARK  163  A    between atoms: _389  and  _391
REMARK  164  A    between atoms: _391  and  _392
REMARK  165  A    between atoms: _391  and  _394
REMARK  166  A    between atoms: _394  and  _395
REMARK  167  A    between atoms: _398  and  _400
REMARK  168  A    between atoms: _400  and  _401
REMARK  169  A    between atoms: _400  and  _403
REMARK  170  A    between atoms: _403  and  _404
REMARK  171  A    between atoms: _409  and  _411
REMARK  172  A    between atoms: _411  and  _412
REMARK  173  A    between atoms: _411  and  _414
REMARK  174  A    between atoms: _414  and  _415
REMARK  175  A    between atoms: _417  and  _419
REMARK  176  A    between atoms: _419  and  _420
REMARK  177  A    between atoms: _419  and  _422
REMARK  178  A    between atoms: _422  and  _423
REMARK  179  A    between atoms: _423  and  _424
REMARK  180  A    between atoms: _426  and  _428
REMARK  181  A    between atoms: _428  and  _429
REMARK  182  A    between atoms: _432  and  _434
REMARK  183  A    between atoms: _434  and  _435
REMARK  184  A    between atoms: _434  and  _437
REMARK  185  A    between atoms: _437  and  _438
REMARK  186  A    between atoms: _443  and  _445
REMARK  187  A    between atoms: _445  and  _446
REMARK  188  A    between atoms: _445  and  _448
REMARK  189  A    between atoms: _448  and  _449
REMARK  190  A    between atoms: _455  and  _457
REMARK  191  A    between atoms: _457  and  _458
REMARK  192  A    between atoms: _457  and  _460
REMARK  193  A    between atoms: _460  and  _461
REMARK  194  A    between atoms: _466  and  _467
REMARK  195  A    between atoms: _469  and  _471
REMARK  196  A    between atoms: _471  and  _472
REMARK  197  A    between atoms: _471  and  _474
REMARK  198  A    between atoms: _474  and  _475
REMARK  199  A    between atoms: _478  and  _480
REMARK  200  A    between atoms: _480  and  _481
REMARK  201  A    between atoms: _480  and  _483
REMARK  202  A    between atoms: _483  and  _484
REMARK  203  A    between atoms: _487  and  _489
REMARK  204  A    between atoms: _489  and  _490
REMARK  205  A    between atoms: _489  and  _492
REMARK  206  A    between atoms: _492  and  _493
REMARK  207  A    between atoms: _496  and  _498
REMARK  208  A    between atoms: _498  and  _499
REMARK  209  A    between atoms: _498  and  _501
REMARK  210  A    between atoms: _501  and  _502
REMARK  211  A    between atoms: _507  and  _508
REMARK  212  A    between atoms: _510  and  _512
REMARK  213  A    between atoms: _512  and  _513
REMARK  214  A    between atoms: _512  and  _515
REMARK  215  A    between atoms: _515  and  _516
REMARK  216  A    between atoms: _519  and  _521
REMARK  217  A    between atoms: _521  and  _522
REMARK  218  A    between atoms: _521  and  _524
REMARK  219  A    between atoms: _524  and  _525
REMARK  220  A    between atoms: _525  and  _526
REMARK  221  A    between atoms: _526  and  _527
REMARK  222  A    between atoms: _536  and  _538
REMARK  223  A    between atoms: _538  and  _539
REMARK  224  A    between atoms: _538  and  _541
REMARK  225  A    between atoms: _541  and  _542
REMARK  226  A    between atoms: _548  and  _549
REMARK  227  A    between atoms: _554  and  _556
REMARK  228  A    between atoms: _556  and  _557
REMARK  229  A    between atoms: _556  and  _559
REMARK  230  A    between atoms: _559  and  _560
REMARK  231  A    between atoms: _560  and  _561
REMARK  232  A    between atoms: _563  and  _565
REMARK  233  A    between atoms: _565  and  _566
REMARK  234  A    between atoms: _565  and  _568
REMARK  235  A    between atoms: _571  and  _573
REMARK  236  A    between atoms: _573  and  _574
REMARK  237  A    between atoms: _577  and  _579
REMARK  238  A    between atoms: _579  and  _580
REMARK  239  A    between atoms: _579  and  _582
REMARK  240  A    between atoms: _582  and  _583
REMARK  241  A    between atoms: _586  and  _588
REMARK  242  A    between atoms: _588  and  _589
REMARK  243  A    between atoms: _588  and  _591
REMARK  244  A    between atoms: _591  and  _592
REMARK  245  A    between atoms: _592  and  _593
REMARK  246  A    between atoms: _598  and  _600
REMARK  247  A    between atoms: _600  and  _601
REMARK  248  A    between atoms: _600  and  _603
REMARK  249  A    between atoms: _603  and  _604
REMARK  250  A    between atoms: _607  and  _609
REMARK  251  A    between atoms: _609  and  _610
REMARK  252  A    between atoms: _609  and  _612
REMARK  253  A    between atoms: _614  and  _616
REMARK  254  A    between atoms: _616  and  _617
REMARK  255  A    between atoms: _616  and  _619
REMARK  256  A    between atoms: _619  and  _620
REMARK  257  A    between atoms: _620  and  _621
REMARK  258  A    between atoms: _624  and  _626
REMARK  259  A    between atoms: _626  and  _627
REMARK  260  A    between atoms: _626  and  _629
REMARK  261  A    between atoms: _629  and  _630
REMARK  262  A    between atoms: _630  and  _631
REMARK  263  A    between atoms: _631  and  _632
REMARK  264  A    between atoms: _632  and  _633
REMARK  265  A    between atoms: _637  and  _639
REMARK  266  A    between atoms: _639  and  _640
REMARK  267  A    between atoms: _639  and  _642
REMARK  268  A    between atoms: _642  and  _643
REMARK  269  A    between atoms: _648  and  _650
REMARK  270  A    between atoms: _650  and  _651
REMARK  271  A    between atoms: _650  and  _653
REMARK  272  A    between atoms: _653  and  _654
REMARK  273  A    between atoms: _659  and  _660
REMARK  274  A    between atoms: _662  and  _664
REMARK  275  A    between atoms: _664  and  _665
REMARK  276  A    between atoms: _664  and  _667
REMARK  277  A    between atoms: _667  and  _668
REMARK  278  A    between atoms: _668  and  _669
REMARK  279  A    between atoms: _669  and  _670
REMARK                            x       y       z     vdW  Elec       q    Type
REMARK                         _______ _______ _______ _____ _____    ______ ____
ROOT
ATOM      1  CA  LEU A   2      18.346  17.018  24.183  0.00  0.00    +0.149 C 
ENDROOT
BRANCH   1   3
ATOM      2  C   ALA A   1      17.971  15.373  26.048  0.00  0.00    +0.238 C 
ATOM      3  N   LEU A   2      18.365  16.607  25.603  0.00  0.00    -0.297 N 
ATOM      4  H   LEU A   2      18.698  17.297  26.307  0.00  0.00    +0.150 HD
ATOM      5  O   ALA A   1      17.508  14.510  25.304  0.00  0.00    -0.274 OA
BRANCH   2   6
ATOM      6  CA  ALA A   1      18.134  15.074  27.546  0.00  0.00    +0.145 C 
ATOM      7  CB  ALA A   1      16.781  15.109  28.241  0.00  0.00    +0.028 C 
BRANCH   6   8
ATOM      8  N   ALA A   1      19.039  16.038  28.182  0.00  0.00    -0.238 NA
ATOM      9  H   ALA A   1      18.613  16.781  28.772  0.00  0.00    +0.142 HD
ENDBRANCH   6   8
ENDBRANCH   2   6
ENDBRANCH   1   3
BRANCH   1  10
ATOM     10  C   LEU A   2      16.957  16.965  23.516  0.00  0.00    +0.241 C 
ATOM     11  N   THR A   3      15.952  17.343  24.307  0.00  0.00    -0.296 N 
ATOM     12  H   THR A   3      16.185  17.595  25.289  0.00  0.00    +0.150 HD
ATOM     13  O   LEU A   2      16.799  16.605  22.343  0.00  0.00    -0.273 OA
BRANCH  11  14
ATOM     14  CA  THR A   3      14.552  17.432  23.907  0.00  0.00    +0.164 C 
BRANCH  14  15
ATOM     15  C   THR A   3      14.022  18.730  24.513  0.00  0.00    +0.229 C 
ATOM     16  O   THR A   3      14.311  19.036  25.680  0.00  0.00    -0.286 OA
ENDBRANCH  14  15
BRANCH  14  17
ATOM     17  CB  THR A   3      13.802  16.128  24.270  0.00  0.00    +0.136 C 
ATOM     18  CG2 THR A   3      13.757  15.843  25.778  0.00  0.00    +0.034 C 
BRANCH  17  19
ATOM     19  OG1 THR A   3      12.498  16.139  23.694  0.00  0.00    -0.382 OA
ATOM     20  HG1 THR A   3      12.026  15.302  23.932  0.00  0.00    +0.210 HD
ENDBRANCH  17  19
ENDBRANCH  14  17
ENDBRANCH  11  14
ENDBRANCH   1  10
BRANCH   1  21
ATOM     21  CB  LEU A   2      19.440  16.305  23.340  0.00  0.00    +0.029 C 
BRANCH  21  22
ATOM     22  CG  LEU A   2      20.810  16.008  24.037  0.00  0.00    +0.002 C 
ATOM     23  CD2 LEU A   2      21.438  17.244  24.703  0.00  0.00    +0.000 C 
ATOM     24  CD1 LEU A   2      21.788  15.419  23.055  0.00  0.00    +0.000 C 
ENDBRANCH  21  22
ENDBRANCH   1  21
TORSDOF 10
REMARK  Name = ../refined-set-2016/3t8v/3t8v_pocket.pdb
REMARK  279 active torsions:
REMARK  status: ('A' for Active; 'I' for Inactive)
REMARK    1  A    between atoms: _1  and  _3
REMARK    2  A    between atoms: _3  and  _4
REMARK    3  A    between atoms: _7  and  _9
REMARK    4  A    between atoms: _9  and  _10
REMARK    5  A    between atoms: _9  and  _12
REMARK    6  A    between atoms: _12  and  _13
REMARK    7  A    between atoms: _16  and  _18
REMARK    8  A    between atoms: _18  and  _19
REMARK    9  A    between atoms: _18  and  _21
REMARK   10  A    between atoms: _21  and  _22
REMARK   11  A    between atoms: _25  and  _27
REMARK   12  A    between atoms: _27  and  _28
REMARK   13  A    between atoms: _27  and  _30
REMARK   14  A    between atoms: _30  and  _31
REMARK   15  A    between atoms: _31  and  _32
REMARK   16  A    between atoms: _37  and  _39
REMARK   17  A    between atoms: _39  and  _40
REMARK   18  A    between atoms: _39  and  _42
REMARK   19  A    between atoms: _44  and  _46
REMARK   20  A    between atoms: _46  and  _47
REMARK   21  A    between atoms: _46  and  _49
REMARK   22  A    between atoms: _49  and  _50
REMARK   23  A    between atoms: _50  and  _51
REMARK   24  A    between atoms: _54  and  _56
REMARK   25  A    between atoms: _56  and  _57
REMARK   26  A    between atoms: _60  and  _62
REMARK   27  A    between atoms: _62  and  _63
REMARK   28  A    between atoms: _62  and  _65
REMARK   29  A    between atoms: _65  and  _66
REMARK   30  A    between atoms: _69  and  _71
REMARK   31  A    between atoms: _71  and  _72
REMARK   32  A    between atoms: _74  and  _76
REMARK   33  A    between atoms: _76  and  _77
REMARK   34  A    between atoms: _76  and  _79
REMARK   35  A    between atoms: _79  and  _80
REMARK   36  A    between atoms: _85  and  _86
REMARK   37  A    between atoms: _88  and  _90
REMARK   38  A    between atoms: _90  and  _91
REMARK   39  A    between atoms: _90  and  _93
REMARK   40  A    between atoms: _93  and  _94
REMARK   41  A    between atoms: _100  and  _102
REMARK   42  A    between atoms: _102  and  _103
REMARK   43  A    between atoms: _102  and  _105
REMARK   44  A    between atoms: _105  and  _106
REMARK   45  A    between atoms: _111  and  _113
REMARK   46  A    between atoms: _113  and  _114
REMARK   47  A    between atoms: _113  and  _116
REMARK   48  A    between atoms: _119  and  _121
REMARK   49  A    between atoms: _121  and  _122
REMARK   50  A    between atoms: _124  and  _126
REMARK   51  A    between atoms: _126  and  _127
REMARK   52  A    between atoms: _130  and  _132
REMARK   53  A    between atoms: _132  and  _133
REMARK   54  A    between atoms: _132  and  _135
REMARK   55  A    between atoms: _135  and  _136
REMARK   56  A    between atoms: _136  and  _137
REMARK   57  A    between atoms: _139  and  _141
REMARK   58  A    between atoms: _141  and  _142
REMARK   59  A    between atoms: _141  and  _144
REMARK   60  A    between atoms: _144  and  _145
REMARK   61  A    between atoms: _145  and  _146
REMARK   62  A    between atoms: _149  and  _151
REMARK   63  A    between atoms: _151  and  _152
REMARK   64  A    between atoms: _151  and  _154
REMARK   65  A    between atoms: _154  and  _155
REMARK   66  A    between atoms: _160  and  _162
REMARK   67  A    between atoms: _162  and  _163
REMARK   68  A    between atoms: _162  and  _165
REMARK   69  A    between atoms: _165  and  _166
REMARK   70  A    between atoms: _169  and  _171
REMARK   71  A    between atoms: _171  and  _172
REMARK   72  A    between atoms: _171  and  _174
REMARK   73  A    between atoms: _174  and  _175
REMARK   74  A    between atoms: _181  and  _183
REMARK   75  A    between atoms: _183  and  _184
REMARK   76  A    between atoms: _183  and  _186
REMARK   77  A    between atoms: _186  and  _187
REMARK   78  A    between atoms: _192  and  _194
REMARK   79  A    between atoms: _194  and  _195
REMARK   80  A    between atoms: _194  and  _197
REMARK   81  A    between atoms: _197  and  _198
REMARK   82  A    between atoms: _203  and  _205
REMARK   83  A    between atoms: _205  and  _206
REMARK   84  A    between atoms: _205  and  _208
REMARK   85  A    between atoms: _208  and  _209
REMARK   86  A    between atoms: _211  and  _213
REMARK   87  A    between atoms: _213  and  _214
REMARK   88  A    between atoms: _213  and  _216
REMARK   89  A    between atoms: _216  and  _217
REMARK   90  A    between atoms: _217  and  _218
REMARK   91  A    between atoms: _218  and  _219
REMARK   92  A    between atoms: _228  and  _230
REMARK   93  A    between atoms: _230  and  _231
REMARK   94  A    between atoms: _230  and  _233
REMARK   95  A    between atoms: _233  and  _234
REMARK   96  A    between atoms: _237  and  _239
REMARK   97  A    between atoms: _239  and  _240
REMARK   98  A    between atoms: _239  and  _242
REMARK   99  A    between atoms: _245  and  _247
REMARK  100  A    between atoms: _247  and  _248
REMARK  101  A    between atoms: _247  and  _250
REMARK  102  A    between atoms: _253  and  _255
REMARK  103  A    between atoms: _255  and  _256
REMARK  104  A    between atoms: _258  and  _260
REMARK  105  A    between atoms: _260  and  _261
REMARK  106  A    between atoms: _260  and  _263
REMARK  107  A    between atoms: _263  and  _264
REMARK  108  A    between atoms: _268  and  ZN_679
REMARK  109  A    between atoms: _269  and  _271
REMARK  110  A    between atoms: _271  and  _272
REMARK  111  A    between atoms: _271  and  _274
REMARK  112  A    between atoms: _274  and  _275
REMARK  113  A    between atoms: _275  and  _276
REMARK  114  A    between atoms: _279  and  _281
REMARK  115  A    between atoms: _281  and  _282
REMARK  116  A    between atoms: _281  and  _284
REMARK  117  A    between atoms: _284  and  _285
REMARK  118  A    between atoms: _290  and  _291
REMARK  119  A    between atoms: _293  and  _295
REMARK  120  A    between atoms: _295  and  _296
REMARK  121  A    between atoms: _295  and  _298
REMARK  122  A    between atoms: _298  and  _299
REMARK  123  A    between atoms: _303  and  ZN_679
REMARK  124  A    between atoms: _304  and  _306
REMARK  125  A    between atoms: _306  and  _307
REMARK  126  A    between atoms: _306  and  _309
REMARK  127  A    between atoms: _309  and  _310
REMARK  128  A    between atoms: _320  and  _322
REMARK  129  A    between atoms: _322  and  _323
REMARK  130  A    between atoms: _322  and  _325
REMARK  131  A    between atoms: _325  and  _326
REMARK  132  A    between atoms: _329  and  _331
REMARK  133  A    between atoms: _331  and  _332
REMARK  134  A    between atoms: _331  and  _334
REMARK  135  A    between atoms: _334  and  _335
REMARK  136  A    between atoms: _335  and  _336
REMARK  137  A    between atoms: _336  and  _337
REMARK  138  A    between atoms: _337  and  _338
REMARK  139  A    between atoms: _342  and  _344
REMARK  140  A    between atoms: _344  and  _345
REMARK  141  A    between atoms: _344  and  _347
REMARK  142  A    between atoms: _347  and  _348
REMARK  143  A    between atoms: _348  and  _349
REMARK  144  A    between atoms: _349  and  _350
REMARK  145  A    between atoms: _350  and  ZN_679
REMARK  146  A    between atoms: _352  and  _354
REMARK  147  A    between atoms: _354  and  _355
REMARK  148  A    between atoms: _354  and  _357
REMARK  149  A    between atoms: _357  and  _358
REMARK  150  A    between atoms: _361  and  _363
REMARK  151  A    between atoms: _363  and  _364
REMARK  152  A    between atoms: _363  and  _366
REMARK  153  A    between atoms: _369  and  _371
REMARK  154  A    between atoms: _371  and  _372
REMARK  155  A    between atoms: _371  and  _374
REMARK  156  A    between atoms: _374  and  _375
REMARK  157  A    between atoms: _375  and  _376
REMARK  158  A    between atoms: _379  and  _381
REMARK  159  A    between atoms: _381  and  _382
REMARK  160  A    between atoms: _381  and  _384
REMARK  161  A    between atoms: _384  and  _385
REMARK  162  A    between atoms: _385  and  _386
REMARK  163  A    between atoms: _389  and  _391
REMARK  164  A    between atoms: _391  and  _392
REMARK  165  A    between atoms: _391  and  _394
REMARK  166  A    between atoms: _394  and  _395
REMARK  167  A    between atoms: _398  and  _400
REMARK  168  A    between atoms: _400  and  _401
REMARK  169  A    between atoms: _400  and  _403
REMARK  170  A    between atoms: _403  and  _404
REMARK  171  A    between atoms: _409  and  _411
REMARK  172  A    between atoms: _411  and  _412
REMARK  173  A    between atoms: _411  and  _414
REMARK  174  A    between atoms: _414  and  _415
REMARK  175  A    between atoms: _417  and  _419
REMARK  176  A    between atoms: _419  and  _420
REMARK  177  A    between atoms: _419  and  _422
REMARK  178  A    between atoms: _422  and  _423
REMARK  179  A    between atoms: _423  and  _424
REMARK  180  A    between atoms: _426  and  _428
REMARK  181  A    between atoms: _428  and  _429
REMARK  182  A    between atoms: _432  and  _434
REMARK  183  A    between atoms: _434  and  _435
REMARK  184  A    between atoms: _434  and  _437
REMARK  185  A    between atoms: _437  and  _438
REMARK  186  A    between atoms: _443  and  _445
REMARK  187  A    between atoms: _445  and  _446
REMARK  188  A    between atoms: _445  and  _448
REMARK  189  A    between atoms: _448  and  _449
REMARK  190  A    between atoms: _455  and  _457
REMARK  191  A    between atoms: _457  and  _458
REMARK  192  A    between atoms: _457  and  _460
REMARK  193  A    between atoms: _460  and  _461
REMARK  194  A    between atoms: _466  and  _467
REMARK  195  A    between atoms: _469  and  _471
REMARK  196  A    between atoms: _471  and  _472
REMARK  197  A    between atoms: _471  and  _474
REMARK  198  A    between atoms: _474  and  _475
REMARK  199  A    between atoms: _478  and  _480
REMARK  200  A    between atoms: _480  and  _481
REMARK  201  A    between atoms: _480  and  _483
REMARK  202  A    between atoms: _483  and  _484
REMARK  203  A    between atoms: _487  and  _489
REMARK  204  A    between atoms: _489  and  _490
REMARK  205  A    between atoms: _489  and  _492
REMARK  206  A    between atoms: _492  and  _493
REMARK  207  A    between atoms: _496  and  _498
REMARK  208  A    between atoms: _498  and  _499
REMARK  209  A    between atoms: _498  and  _501
REMARK  210  A    between atoms: _501  and  _502
REMARK  211  A    between atoms: _507  and  _508
REMARK  212  A    between atoms: _510  and  _512
REMARK  213  A    between atoms: _512  and  _513
REMARK  214  A    between atoms: _512  and  _515
REMARK  215  A    between atoms: _515  and  _516
REMARK  216  A    between atoms: _519  and  _521
REMARK  217  A    between atoms: _521  and  _522
REMARK  218  A    between atoms: _521  and  _524
REMARK  219  A    between atoms: _524  and  _525
REMARK  220  A    between atoms: _525  and  _526
REMARK  221  A    between atoms: _526  and  _527
REMARK  222  A    between atoms: _536  and  _538
REMARK  223  A    between atoms: _538  and  _539
REMARK  224  A    between atoms: _538  and  _541
REMARK  225  A    between atoms: _541  and  _542
REMARK  226  A    between atoms: _548  and  _549
REMARK  227  A    between atoms: _554  and  _556
REMARK  228  A    between atoms: _556  and  _557
REMARK  229  A    between atoms: _556  and  _559
REMARK  230  A    between atoms: _559  and  _560
REMARK  231  A    between atoms: _560  and  _561
REMARK  232  A    between atoms: _563  and  _565
REMARK  233  A    between atoms: _565  and  _566
REMARK  234  A    between atoms: _565  and  _568
REMARK  235  A    between atoms: _571  and  _573
REMARK  236  A    between atoms: _573  and  _574
REMARK  237  A    between atoms: _577  and  _579
REMARK  238  A    between atoms: _579  and  _580
REMARK  239  A    between atoms: _579  and  _582
REMARK  240  A    between atoms: _582  and  _583
REMARK  241  A    between atoms: _586  and  _588
REMARK  242  A    between atoms: _588  and  _589
REMARK  243  A    between atoms: _588  and  _591
REMARK  244  A    between atoms: _591  and  _592
REMARK  245  A    between atoms: _592  and  _593
REMARK  246  A    between atoms: _598  and  _600
REMARK  247  A    between atoms: _600  and  _601
REMARK  248  A    between atoms: _600  and  _603
REMARK  249  A    between atoms: _603  and  _604
REMARK  250  A    between atoms: _607  and  _609
REMARK  251  A    between atoms: _609  and  _610
REMARK  252  A    between atoms: _609  and  _612
REMARK  253  A    between atoms: _614  and  _616
REMARK  254  A    between atoms: _616  and  _617
REMARK  255  A    between atoms: _616  and  _619
REMARK  256  A    between atoms: _619  and  _620
REMARK  257  A    between atoms: _620  and  _621
REMARK  258  A    between atoms: _624  and  _626
REMARK  259  A    between atoms: _626  and  _627
REMARK  260  A    between atoms: _626  and  _629
REMARK  261  A    between atoms: _629  and  _630
REMARK  262  A    between atoms: _630  and  _631
REMARK  263  A    between atoms: _631  and  _632
REMARK  264  A    between atoms: _632  and  _633
REMARK  265  A    between atoms: _637  and  _639
REMARK  266  A    between atoms: _639  and  _640
REMARK  267  A    between atoms: _639  and  _642
REMARK  268  A    between atoms: _642  and  _643
REMARK  269  A    between atoms: _648  and  _650
REMARK  270  A    between atoms: _650  and  _651
REMARK  271  A    between atoms: _650  and  _653
REMARK  272  A    between atoms: _653  and  _654
REMARK  273  A    between atoms: _659  and  _660
REMARK  274  A    between atoms: _662  and  _664
REMARK  275  A    between atoms: _664  and  _665
REMARK  276  A    between atoms: _664  and  _667
REMARK  277  A    between atoms: _667  and  _668
REMARK  278  A    between atoms: _668  and  _669
REMARK  279  A    between atoms: _669  and  _670
REMARK                            x       y       z     vdW  Elec       q    Type
REMARK                         _______ _______ _______ _____ _____    ______ ____
ROOT
ATOM      1  CA  GLU A   3       9.382  15.813  17.857  0.00  0.00    +0.149 C 
ENDROOT
BRANCH   1   4
ATOM      2  C   CYS A   2       9.556  17.808  19.186  0.00  0.00    +0.242 C 
ATOM      3  O   CYS A   2       8.703  17.376  19.962  0.00  0.00    -0.273 OA
ATOM      4  N   GLU A   3       9.969  17.126  18.106  0.00  0.00    -0.297 N 
ATOM      5  H   GLU A   3      10.686  17.522  17.465  0.00  0.00    +0.150 HD
BRANCH   2   6
ATOM      6  CA  CYS A   2      10.212  19.134  19.487  0.00  0.00    +0.160 C 
BRANCH   6   9
ATOM      7  C   GLN A   1      12.629  19.169  19.927  0.00  0.00    +0.238 C 
ATOM      8  O   GLN A   1      12.480  18.881  21.116  0.00  0.00    -0.274 OA
ATOM      9  N   CYS A   2      11.607  19.295  19.065  0.00  0.00    -0.297 N 
ATOM     10  H   CYS A   2      11.811  19.513  18.069  0.00  0.00    +0.150 HD
BRANCH   7  11
ATOM     11  CA  GLN A   1      14.029  19.449  19.379  0.00  0.00    +0.145 C 
BRANCH  11  12
ATOM     12  N   GLN A   1      14.393  20.750  19.923  0.00  0.00    -0.238 NA
ATOM     13  H   GLN A   1      14.057  20.983  20.879  0.00  0.00    +0.142 HD
ENDBRANCH  11  12
BRANCH  11  14
ATOM     14  CB  GLN A   1      15.047  18.333  19.698  0.00  0.00    +0.036 C 
BRANCH  14  15
ATOM     15  CG  GLN A   1      14.599  16.933  19.232  0.00  0.00    +0.087 C 
BRANCH  15  16
ATOM     16  CD  GLN A   1      14.209  16.885  17.771  0.00  0.00    +0.219 C 
ATOM     17  NE2 GLN A   1      13.113  16.195  17.452  0.00  0.00    -0.329 N 
ATOM     18 HE21 GLN A   1      12.540  15.754  18.200  0.00  0.00    +0.145 HD
ATOM     19 HE22 GLN A   1      12.831  16.098  16.456  0.00  0.00    +0.145 HD
ATOM     20  OE1 GLN A   1      14.908  17.419  16.903  0.00  0.00    -0.275 OA
ENDBRANCH  15  16
ENDBRANCH  14  15
ENDBRANCH  11  14
ENDBRANCH   7  11
ENDBRANCH   6   9
BRANCH   6  21
ATOM     21  CB  CYS A   2       9.365  20.326  19.052  0.00  0.00    +0.098 C 
ATOM     22  SG  CYS A   2       9.926  21.872  19.795  0.00  0.00    -0.080 S 
ENDBRANCH   6  21
ENDBRANCH   2   6
ENDBRANCH   1   4
BRANCH   1  23
ATOM     23  C   GLU A   3       9.925  14.830  18.905  0.00  0.00    +0.241 C 
ATOM     24  N   ALA A   4       9.062  14.007  19.533  0.00  0.00    -0.297 N 
ATOM     25  H   ALA A   4       9.462  13.332  20.215  0.00  0.00    +0.150 HD
ATOM     26  O   GLU A   3      11.134  14.839  19.158  0.00  0.00    -0.273 OA
BRANCH  24  27
ATOM     27  CA  ALA A   4       7.601  13.980  19.338  0.00  0.00    +0.149 C 
ATOM     28  CB  ALA A   4       7.087  12.554  19.405  0.00  0.00    +0.031 C 
BRANCH  27  29
ATOM     29  C   ALA A   4       6.878  14.844  20.375  0.00  0.00    +0.241 C 
ATOM     30  N   THR A   5       7.358  14.821  21.634  0.00  0.00    -0.295 N 
ATOM     31  H   THR A   5       8.227  14.282  21.826  0.00  0.00    +0.150 HD
ATOM     32  O   ALA A   4       5.893  15.512  20.037  0.00  0.00    -0.273 OA
BRANCH  30  33
ATOM     33  CA  THR A   5       6.709  15.522  22.744  0.00  0.00    +0.176 C 
BRANCH  33  34
ATOM     34  C   THR A   5       7.618  16.552  23.421  0.00  0.00    +0.243 C 
ATOM     35  O   THR A   5       7.502  16.774  24.628  0.00  0.00    -0.273 OA
ATOM     36  N   GLY A   6       8.492  17.182  22.639  0.00  0.00    -0.296 N 
ATOM     37  H   GLY A   6       8.513  16.948  21.626  0.00  0.00    +0.150 HD
BRANCH  36  38
ATOM     38  CA  GLY A   6       9.417  18.181  23.141  0.00  0.00    +0.163 C 
BRANCH  38  39
ATOM     39  C   GLY A   6       8.856  19.593  23.235  0.00  0.00    +0.229 C 
ATOM     40  O   GLY A   6       9.398  20.378  24.000  0.00  0.00    -0.286 OA
ENDBRANCH  38  39
ENDBRANCH  36  38
ENDBRANCH  33  34
BRANCH  33  41
ATOM     41  CB  THR A   5       6.189  14.494  23.761  0.00  0.00    +0.137 C 
ATOM     42  CG2 THR A   5       5.190  13.516  23.170  0.00  0.00    +0.034 C 
BRANCH  41  43
ATOM     43  OG1 THR A   5       7.315  13.807  24.311  0.00  0.00    -0.382 OA
ATOM     44  HG1 THR A   5       7.808  13.350  23.584  0.00  0.00    +0.210 HD
ENDBRANCH  41  43
ENDBRANCH  33  41
ENDBRANCH  30  33
ENDBRANCH  27  29
ENDBRANCH  24  27
ENDBRANCH   1  23
BRANCH   1  45
ATOM     45  CB  GLU A   3       9.723  15.287  16.456  0.00  0.00    +0.041 C 
BRANCH  45  46
ATOM     46  CG  GLU A   3       8.807  14.131  16.087  0.00  0.00    +0.116 C 
BRANCH  46  47
ATOM     47  CD  GLU A   3       9.118  13.474  14.758  0.00  0.00    +0.365 C 
ATOM     48  OE2 GLU A   3       8.379  12.547  14.371  0.00  0.00    -0.246 OA
ATOM     49  OE1 GLU A   3      10.101  13.880  14.105  0.00  0.00    -0.246 OA
ENDBRANCH  46  47
ENDBRANCH  45  46
ENDBRANCH   1  45
TORSDOF 21
REMARK  Name = ../refined-set-2016/3t8v/3t8v_pocket.pdb
REMARK  279 active torsions:
REMARK  status: ('A' for Active; 'I' for Inactive)
REMARK    1  A    between atoms: _1  and  _3
REMARK    2  A    between atoms: _3  and  _4
REMARK    3  A    between atoms: _7  and  _9
REMARK    4  A    between atoms: _9  and  _10
REMARK    5  A    between atoms: _9  and  _12
REMARK    6  A    between atoms: _12  and  _13
REMARK    7  A    between atoms: _16  and  _18
REMARK    8  A    between atoms: _18  and  _19
REMARK    9  A    between atoms: _18  and  _21
REMARK   10  A    between atoms: _21  and  _22
REMARK   11  A    between atoms: _25  and  _27
REMARK   12  A    between atoms: _27  and  _28
REMARK   13  A    between atoms: _27  and  _30
REMARK   14  A    between atoms: _30  and  _31
REMARK   15  A    between atoms: _31  and  _32
REMARK   16  A    between atoms: _37  and  _39
REMARK   17  A    between atoms: _39  and  _40
REMARK   18  A    between atoms: _39  and  _42
REMARK   19  A    between atoms: _44  and  _46
REMARK   20  A    between atoms: _46  and  _47
REMARK   21  A    between atoms: _46  and  _49
REMARK   22  A    between atoms: _49  and  _50
REMARK   23  A    between atoms: _50  and  _51
REMARK   24  A    between atoms: _54  and  _56
REMARK   25  A    between atoms: _56  and  _57
REMARK   26  A    between atoms: _60  and  _62
REMARK   27  A    between atoms: _62  and  _63
REMARK   28  A    between atoms: _62  and  _65
REMARK   29  A    between atoms: _65  and  _66
REMARK   30  A    between atoms: _69  and  _71
REMARK   31  A    between atoms: _71  and  _72
REMARK   32  A    between atoms: _74  and  _76
REMARK   33  A    between atoms: _76  and  _77
REMARK   34  A    between atoms: _76  and  _79
REMARK   35  A    between atoms: _79  and  _80
REMARK   36  A    between atoms: _85  and  _86
REMARK   37  A    between atoms: _88  and  _90
REMARK   38  A    between atoms: _90  and  _91
REMARK   39  A    between atoms: _90  and  _93
REMARK   40  A    between atoms: _93  and  _94
REMARK   41  A    between atoms: _100  and  _102
REMARK   42  A    between atoms: _102  and  _103
REMARK   43  A    between atoms: _102  and  _105
REMARK   44  A    between atoms: _105  and  _106
REMARK   45  A    between atoms: _111  and  _113
REMARK   46  A    between atoms: _113  and  _114
REMARK   47  A    between atoms: _113  and  _116
REMARK   48  A    between atoms: _119  and  _121
REMARK   49  A    between atoms: _121  and  _122
REMARK   50  A    between atoms: _124  and  _126
REMARK   51  A    between atoms: _126  and  _127
REMARK   52  A    between atoms: _130  and  _132
REMARK   53  A    between atoms: _132  and  _133
REMARK   54  A    between atoms: _132  and  _135
REMARK   55  A    between atoms: _135  and  _136
REMARK   56  A    between atoms: _136  and  _137
REMARK   57  A    between atoms: _139  and  _141
REMARK   58  A    between atoms: _141  and  _142
REMARK   59  A    between atoms: _141  and  _144
REMARK   60  A    between atoms: _144  and  _145
REMARK   61  A    between atoms: _145  and  _146
REMARK   62  A    between atoms: _149  and  _151
REMARK   63  A    between atoms: _151  and  _152
REMARK   64  A    between atoms: _151  and  _154
REMARK   65  A    between atoms: _154  and  _155
REMARK   66  A    between atoms: _160  and  _162
REMARK   67  A    between atoms: _162  and  _163
REMARK   68  A    between atoms: _162  and  _165
REMARK   69  A    between atoms: _165  and  _166
REMARK   70  A    between atoms: _169  and  _171
REMARK   71  A    between atoms: _171  and  _172
REMARK   72  A    between atoms: _171  and  _174
REMARK   73  A    between atoms: _174  and  _175
REMARK   74  A    between atoms: _181  and  _183
REMARK   75  A    between atoms: _183  and  _184
REMARK   76  A    between atoms: _183  and  _186
REMARK   77  A    between atoms: _186  and  _187
REMARK   78  A    between atoms: _192  and  _194
REMARK   79  A    between atoms: _194  and  _195
REMARK   80  A    between atoms: _194  and  _197
REMARK   81  A    between atoms: _197  and  _198
REMARK   82  A    between atoms: _203  and  _205
REMARK   83  A    between atoms: _205  and  _206
REMARK   84  A    between atoms: _205  and  _208
REMARK   85  A    between atoms: _208  and  _209
REMARK   86  A    between atoms: _211  and  _213
REMARK   87  A    between atoms: _213  and  _214
REMARK   88  A    between atoms: _213  and  _216
REMARK   89  A    between atoms: _216  and  _217
REMARK   90  A    between atoms: _217  and  _218
REMARK   91  A    between atoms: _218  and  _219
REMARK   92  A    between atoms: _228  and  _230
REMARK   93  A    between atoms: _230  and  _231
REMARK   94  A    between atoms: _230  and  _233
REMARK   95  A    between atoms: _233  and  _234
REMARK   96  A    between atoms: _237  and  _239
REMARK   97  A    between atoms: _239  and  _240
REMARK   98  A    between atoms: _239  and  _242
REMARK   99  A    between atoms: _245  and  _247
REMARK  100  A    between atoms: _247  and  _248
REMARK  101  A    between atoms: _247  and  _250
REMARK  102  A    between atoms: _253  and  _255
REMARK  103  A    between atoms: _255  and  _256
REMARK  104  A    between atoms: _258  and  _260
REMARK  105  A    between atoms: _260  and  _261
REMARK  106  A    between atoms: _260  and  _263
REMARK  107  A    between atoms: _263  and  _264
REMARK  108  A    between atoms: _268  and  ZN_679
REMARK  109  A    between atoms: _269  and  _271
REMARK  110  A    between atoms: _271  and  _272
REMARK  111  A    between atoms: _271  and  _274
REMARK  112  A    between atoms: _274  and  _275
REMARK  113  A    between atoms: _275  and  _276
REMARK  114  A    between atoms: _279  and  _281
REMARK  115  A    between atoms: _281  and  _282
REMARK  116  A    between atoms: _281  and  _284
REMARK  117  A    between atoms: _284  and  _285
REMARK  118  A    between atoms: _290  and  _291
REMARK  119  A    between atoms: _293  and  _295
REMARK  120  A    between atoms: _295  and  _296
REMARK  121  A    between atoms: _295  and  _298
REMARK  122  A    between atoms: _298  and  _299
REMARK  123  A    between atoms: _303  and  ZN_679
REMARK  124  A    between atoms: _304  and  _306
REMARK  125  A    between atoms: _306  and  _307
REMARK  126  A    between atoms: _306  and  _309
REMARK  127  A    between atoms: _309  and  _310
REMARK  128  A    between atoms: _320  and  _322
REMARK  129  A    between atoms: _322  and  _323
REMARK  130  A    between atoms: _322  and  _325
REMARK  131  A    between atoms: _325  and  _326
REMARK  132  A    between atoms: _329  and  _331
REMARK  133  A    between atoms: _331  and  _332
REMARK  134  A    between atoms: _331  and  _334
REMARK  135  A    between atoms: _334  and  _335
REMARK  136  A    between atoms: _335  and  _336
REMARK  137  A    between atoms: _336  and  _337
REMARK  138  A    between atoms: _337  and  _338
REMARK  139  A    between atoms: _342  and  _344
REMARK  140  A    between atoms: _344  and  _345
REMARK  141  A    between atoms: _344  and  _347
REMARK  142  A    between atoms: _347  and  _348
REMARK  143  A    between atoms: _348  and  _349
REMARK  144  A    between atoms: _349  and  _350
REMARK  145  A    between atoms: _350  and  ZN_679
REMARK  146  A    between atoms: _352  and  _354
REMARK  147  A    between atoms: _354  and  _355
REMARK  148  A    between atoms: _354  and  _357
REMARK  149  A    between atoms: _357  and  _358
REMARK  150  A    between atoms: _361  and  _363
REMARK  151  A    between atoms: _363  and  _364
REMARK  152  A    between atoms: _363  and  _366
REMARK  153  A    between atoms: _369  and  _371
REMARK  154  A    between atoms: _371  and  _372
REMARK  155  A    between atoms: _371  and  _374
REMARK  156  A    between atoms: _374  and  _375
REMARK  157  A    between atoms: _375  and  _376
REMARK  158  A    between atoms: _379  and  _381
REMARK  159  A    between atoms: _381  and  _382
REMARK  160  A    between atoms: _381  and  _384
REMARK  161  A    between atoms: _384  and  _385
REMARK  162  A    between atoms: _385  and  _386
REMARK  163  A    between atoms: _389  and  _391
REMARK  164  A    between atoms: _391  and  _392
REMARK  165  A    between atoms: _391  and  _394
REMARK  166  A    between atoms: _394  and  _395
REMARK  167  A    between atoms: _398  and  _400
REMARK  168  A    between atoms: _400  and  _401
REMARK  169  A    between atoms: _400  and  _403
REMARK  170  A    between atoms: _403  and  _404
REMARK  171  A    between atoms: _409  and  _411
REMARK  172  A    between atoms: _411  and  _412
REMARK  173  A    between atoms: _411  and  _414
REMARK  174  A    between atoms: _414  and  _415
REMARK  175  A    between atoms: _417  and  _419
REMARK  176  A    between atoms: _419  and  _420
REMARK  177  A    between atoms: _419  and  _422
REMARK  178  A    between atoms: _422  and  _423
REMARK  179  A    between atoms: _423  and  _424
REMARK  180  A    between atoms: _426  and  _428
REMARK  181  A    between atoms: _428  and  _429
REMARK  182  A    between atoms: _432  and  _434
REMARK  183  A    between atoms: _434  and  _435
REMARK  184  A    between atoms: _434  and  _437
REMARK  185  A    between atoms: _437  and  _438
REMARK  186  A    between atoms: _443  and  _445
REMARK  187  A    between atoms: _445  and  _446
REMARK  188  A    between atoms: _445  and  _448
REMARK  189  A    between atoms: _448  and  _449
REMARK  190  A    between atoms: _455  and  _457
REMARK  191  A    between atoms: _457  and  _458
REMARK  192  A    between atoms: _457  and  _460
REMARK  193  A    between atoms: _460  and  _461
REMARK  194  A    between atoms: _466  and  _467
REMARK  195  A    between atoms: _469  and  _471
REMARK  196  A    between atoms: _471  and  _472
REMARK  197  A    between atoms: _471  and  _474
REMARK  198  A    between atoms: _474  and  _475
REMARK  199  A    between atoms: _478  and  _480
REMARK  200  A    between atoms: _480  and  _481
REMARK  201  A    between atoms: _480  and  _483
REMARK  202  A    between atoms: _483  and  _484
REMARK  203  A    between atoms: _487  and  _489
REMARK  204  A    between atoms: _489  and  _490
REMARK  205  A    between atoms: _489  and  _492
REMARK  206  A    between atoms: _492  and  _493
REMARK  207  A    between atoms: _496  and  _498
REMARK  208  A    between atoms: _498  and  _499
REMARK  209  A    between atoms: _498  and  _501
REMARK  210  A    between atoms: _501  and  _502
REMARK  211  A    between atoms: _507  and  _508
REMARK  212  A    between atoms: _510  and  _512
REMARK  213  A    between atoms: _512  and  _513
REMARK  214  A    between atoms: _512  and  _515
REMARK  215  A    between atoms: _515  and  _516
REMARK  216  A    between atoms: _519  and  _521
REMARK  217  A    between atoms: _521  and  _522
REMARK  218  A    between atoms: _521  and  _524
REMARK  219  A    between atoms: _524  and  _525
REMARK  220  A    between atoms: _525  and  _526
REMARK  221  A    between atoms: _526  and  _527
REMARK  222  A    between atoms: _536  and  _538
REMARK  223  A    between atoms: _538  and  _539
REMARK  224  A    between atoms: _538  and  _541
REMARK  225  A    between atoms: _541  and  _542
REMARK  226  A    between atoms: _548  and  _549
REMARK  227  A    between atoms: _554  and  _556
REMARK  228  A    between atoms: _556  and  _557
REMARK  229  A    between atoms: _556  and  _559
REMARK  230  A    between atoms: _559  and  _560
REMARK  231  A    between atoms: _560  and  _561
REMARK  232  A    between atoms: _563  and  _565
REMARK  233  A    between atoms: _565  and  _566
REMARK  234  A    between atoms: _565  and  _568
REMARK  235  A    between atoms: _571  and  _573
REMARK  236  A    between atoms: _573  and  _574
REMARK  237  A    between atoms: _577  and  _579
REMARK  238  A    between atoms: _579  and  _580
REMARK  239  A    between atoms: _579  and  _582
REMARK  240  A    between atoms: _582  and  _583
REMARK  241  A    between atoms: _586  and  _588
REMARK  242  A    between atoms: _588  and  _589
REMARK  243  A    between atoms: _588  and  _591
REMARK  244  A    between atoms: _591  and  _592
REMARK  245  A    between atoms: _592  and  _593
REMARK  246  A    between atoms: _598  and  _600
REMARK  247  A    between atoms: _600  and  _601
REMARK  248  A    between atoms: _600  and  _603
REMARK  249  A    between atoms: _603  and  _604
REMARK  250  A    between atoms: _607  and  _609
REMARK  251  A    between atoms: _609  and  _610
REMARK  252  A    between atoms: _609  and  _612
REMARK  253  A    between atoms: _614  and  _616
REMARK  254  A    between atoms: _616  and  _617
REMARK  255  A    between atoms: _616  and  _619
REMARK  256  A    between atoms: _619  and  _620
REMARK  257  A    between atoms: _620  and  _621
REMARK  258  A    between atoms: _624  and  _626
REMARK  259  A    between atoms: _626  and  _627
REMARK  260  A    between atoms: _626  and  _629
REMARK  261  A    between atoms: _629  and  _630
REMARK  262  A    between atoms: _630  and  _631
REMARK  263  A    between atoms: _631  and  _632
REMARK  264  A    between atoms: _632  and  _633
REMARK  265  A    between atoms: _637  and  _639
REMARK  266  A    between atoms: _639  and  _640
REMARK  267  A    between atoms: _639  and  _642
REMARK  268  A    between atoms: _642  and  _643
REMARK  269  A    between atoms: _648  and  _650
REMARK  270  A    between atoms: _650  and  _651
REMARK  271  A    between atoms: _650  and  _653
REMARK  272  A    between atoms: _653  and  _654
REMARK  273  A    between atoms: _659  and  _660
REMARK  274  A    between atoms: _662  and  _664
REMARK  275  A    between atoms: _664  and  _665
REMARK  276  A    between atoms: _664  and  _667
REMARK  277  A    between atoms: _667  and  _668
REMARK  278  A    between atoms: _668  and  _669
REMARK  279  A    between atoms: _669  and  _670
REMARK                            x       y       z     vdW  Elec       q    Type
REMARK                         _______ _______ _______ _____ _____    ______ ____
ROOT
ATOM      1  CG  TYR A   1       5.910  17.194  15.188  0.00  0.00    -0.020 A 
ATOM      2  CD2 TYR A   1       4.591  17.026  14.778  0.00  0.00    -0.001 A 
ATOM      3  CE2 TYR A   1       4.287  16.536  13.509  0.00  0.00    +0.036 A 
ATOM      4  CZ  TYR A   1       5.313  16.186  12.646  0.00  0.00    +0.134 A 
ATOM      5  CE1 TYR A   1       6.629  16.319  13.042  0.00  0.00    +0.036 A 
ATOM      6  CD1 TYR A   1       6.922  16.825  14.304  0.00  0.00    -0.001 A 
ENDROOT
BRANCH   4   7
ATOM      7  OH  TYR A   1       5.038  15.701  11.399  0.00  0.00    -0.506 OA
ATOM      8  HH  TYR A   1       4.057  15.667  11.268  0.00  0.00    +0.292 HD
ENDBRANCH   4   7
BRANCH   1   9
ATOM      9  CB  TYR A   1       6.235  17.704  16.575  0.00  0.00    +0.051 C 
BRANCH   9  10
ATOM     10  CA  TYR A   1       6.476  19.226  16.669  0.00  0.00    +0.137 C 
BRANCH  10  11
ATOM     11  N   TYR A   1       5.225  19.988  16.764  0.00  0.00    -0.239 NA
ATOM     12  H   TYR A   1       4.319  19.520  16.558  0.00  0.00    +0.142 HD
ENDBRANCH  10  11
BRANCH  10  13
ATOM     13  C   TYR A   1       7.404  19.751  15.568  0.00  0.00    +0.224 C 
ATOM     14  O   TYR A   1       8.604  19.496  15.618  0.00  0.00    -0.287 OA
ENDBRANCH  10  13
ENDBRANCH   9  10
ENDBRANCH   1   9
TORSDOF 5
REMARK  Name = ../refined-set-2016/3t8v/3t8v_pocket.pdb
REMARK  279 active torsions:
REMARK  status: ('A' for Active; 'I' for Inactive)
REMARK    1  A    between atoms: _1  and  _3
REMARK    2  A    between atoms: _3  and  _4
REMARK    3  A    between atoms: _7  and  _9
REMARK    4  A    between atoms: _9  and  _10
REMARK    5  A    between atoms: _9  and  _12
REMARK    6  A    between atoms: _12  and  _13
REMARK    7  A    between atoms: _16  and  _18
REMARK    8  A    between atoms: _18  and  _19
REMARK    9  A    between atoms: _18  and  _21
REMARK   10  A    between atoms: _21  and  _22
REMARK   11  A    between atoms: _25  and  _27
REMARK   12  A    between atoms: _27  and  _28
REMARK   13  A    between atoms: _27  and  _30
REMARK   14  A    between atoms: _30  and  _31
REMARK   15  A    between atoms: _31  and  _32
REMARK   16  A    between atoms: _37  and  _39
REMARK   17  A    between atoms: _39  and  _40
REMARK   18  A    between atoms: _39  and  _42
REMARK   19  A    between atoms: _44  and  _46
REMARK   20  A    between atoms: _46  and  _47
REMARK   21  A    between atoms: _46  and  _49
REMARK   22  A    between atoms: _49  and  _50
REMARK   23  A    between atoms: _50  and  _51
REMARK   24  A    between atoms: _54  and  _56
REMARK   25  A    between atoms: _56  and  _57
REMARK   26  A    between atoms: _60  and  _62
REMARK   27  A    between atoms: _62  and  _63
REMARK   28  A    between atoms: _62  and  _65
REMARK   29  A    between atoms: _65  and  _66
REMARK   30  A    between atoms: _69  and  _71
REMARK   31  A    between atoms: _71  and  _72
REMARK   32  A    between atoms: _74  and  _76
REMARK   33  A    between atoms: _76  and  _77
REMARK   34  A    between atoms: _76  and  _79
REMARK   35  A    between atoms: _79  and  _80
REMARK   36  A    between atoms: _85  and  _86
REMARK   37  A    between atoms: _88  and  _90
REMARK   38  A    between atoms: _90  and  _91
REMARK   39  A    between atoms: _90  and  _93
REMARK   40  A    between atoms: _93  and  _94
REMARK   41  A    between atoms: _100  and  _102
REMARK   42  A    between atoms: _102  and  _103
REMARK   43  A    between atoms: _102  and  _105
REMARK   44  A    between atoms: _105  and  _106
REMARK   45  A    between atoms: _111  and  _113
REMARK   46  A    between atoms: _113  and  _114
REMARK   47  A    between atoms: _113  and  _116
REMARK   48  A    between atoms: _119  and  _121
REMARK   49  A    between atoms: _121  and  _122
REMARK   50  A    between atoms: _124  and  _126
REMARK   51  A    between atoms: _126  and  _127
REMARK   52  A    between atoms: _130  and  _132
REMARK   53  A    between atoms: _132  and  _133
REMARK   54  A    between atoms: _132  and  _135
REMARK   55  A    between atoms: _135  and  _136
REMARK   56  A    between atoms: _136  and  _137
REMARK   57  A    between atoms: _139  and  _141
REMARK   58  A    between atoms: _141  and  _142
REMARK   59  A    between atoms: _141  and  _144
REMARK   60  A    between atoms: _144  and  _145
REMARK   61  A    between atoms: _145  and  _146
REMARK   62  A    between atoms: _149  and  _151
REMARK   63  A    between atoms: _151  and  _152
REMARK   64  A    between atoms: _151  and  _154
REMARK   65  A    between atoms: _154  and  _155
REMARK   66  A    between atoms: _160  and  _162
REMARK   67  A    between atoms: _162  and  _163
REMARK   68  A    between atoms: _162  and  _165
REMARK   69  A    between atoms: _165  and  _166
REMARK   70  A    between atoms: _169  and  _171
REMARK   71  A    between atoms: _171  and  _172
REMARK   72  A    between atoms: _171  and  _174
REMARK   73  A    between atoms: _174  and  _175
REMARK   74  A    between atoms: _181  and  _183
REMARK   75  A    between atoms: _183  and  _184
REMARK   76  A    between atoms: _183  and  _186
REMARK   77  A    between atoms: _186  and  _187
REMARK   78  A    between atoms: _192  and  _194
REMARK   79  A    between atoms: _194  and  _195
REMARK   80  A    between atoms: _194  and  _197
REMARK   81  A    between atoms: _197  and  _198
REMARK   82  A    between atoms: _203  and  _205
REMARK   83  A    between atoms: _205  and  _206
REMARK   84  A    between atoms: _205  and  _208
REMARK   85  A    between atoms: _208  and  _209
REMARK   86  A    between atoms: _211  and  _213
REMARK   87  A    between atoms: _213  and  _214
REMARK   88  A    between atoms: _213  and  _216
REMARK   89  A    between atoms: _216  and  _217
REMARK   90  A    between atoms: _217  and  _218
REMARK   91  A    between atoms: _218  and  _219
REMARK   92  A    between atoms: _228  and  _230
REMARK   93  A    between atoms: _230  and  _231
REMARK   94  A    between atoms: _230  and  _233
REMARK   95  A    between atoms: _233  and  _234
REMARK   96  A    between atoms: _237  and  _239
REMARK   97  A    between atoms: _239  and  _240
REMARK   98  A    between atoms: _239  and  _242
REMARK   99  A    between atoms: _245  and  _247
REMARK  100  A    between atoms: _247  and  _248
REMARK  101  A    between atoms: _247  and  _250
REMARK  102  A    between atoms: _253  and  _255
REMARK  103  A    between atoms: _255  and  _256
REMARK  104  A    between atoms: _258  and  _260
REMARK  105  A    between atoms: _260  and  _261
REMARK  106  A    between atoms: _260  and  _263
REMARK  107  A    between atoms: _263  and  _264
REMARK  108  A    between atoms: _268  and  ZN_679
REMARK  109  A    between atoms: _269  and  _271
REMARK  110  A    between atoms: _271  and  _272
REMARK  111  A    between atoms: _271  and  _274
REMARK  112  A    between atoms: _274  and  _275
REMARK  113  A    between atoms: _275  and  _276
REMARK  114  A    between atoms: _279  and  _281
REMARK  115  A    between atoms: _281  and  _282
REMARK  116  A    between atoms: _281  and  _284
REMARK  117  A    between atoms: _284  and  _285
REMARK  118  A    between atoms: _290  and  _291
REMARK  119  A    between atoms: _293  and  _295
REMARK  120  A    between atoms: _295  and  _296
REMARK  121  A    between atoms: _295  and  _298
REMARK  122  A    between atoms: _298  and  _299
REMARK  123  A    between atoms: _303  and  ZN_679
REMARK  124  A    between atoms: _304  and  _306
REMARK  125  A    between atoms: _306  and  _307
REMARK  126  A    between atoms: _306  and  _309
REMARK  127  A    between atoms: _309  and  _310
REMARK  128  A    between atoms: _320  and  _322
REMARK  129  A    between atoms: _322  and  _323
REMARK  130  A    between atoms: _322  and  _325
REMARK  131  A    between atoms: _325  and  _326
REMARK  132  A    between atoms: _329  and  _331
REMARK  133  A    between atoms: _331  and  _332
REMARK  134  A    between atoms: _331  and  _334
REMARK  135  A    between atoms: _334  and  _335
REMARK  136  A    between atoms: _335  and  _336
REMARK  137  A    between atoms: _336  and  _337
REMARK  138  A    between atoms: _337  and  _338
REMARK  139  A    between atoms: _342  and  _344
REMARK  140  A    between atoms: _344  and  _345
REMARK  141  A    between atoms: _344  and  _347
REMARK  142  A    between atoms: _347  and  _348
REMARK  143  A    between atoms: _348  and  _349
REMARK  144  A    between atoms: _349  and  _350
REMARK  145  A    between atoms: _350  and  ZN_679
REMARK  146  A    between atoms: _352  and  _354
REMARK  147  A    between atoms: _354  and  _355
REMARK  148  A    between atoms: _354  and  _357
REMARK  149  A    between atoms: _357  and  _358
REMARK  150  A    between atoms: _361  and  _363
REMARK  151  A    between atoms: _363  and  _364
REMARK  152  A    between atoms: _363  and  _366
REMARK  153  A    between atoms: _369  and  _371
REMARK  154  A    between atoms: _371  and  _372
REMARK  155  A    between atoms: _371  and  _374
REMARK  156  A    between atoms: _374  and  _375
REMARK  157  A    between atoms: _375  and  _376
REMARK  158  A    between atoms: _379  and  _381
REMARK  159  A    between atoms: _381  and  _382
REMARK  160  A    between atoms: _381  and  _384
REMARK  161  A    between atoms: _384  and  _385
REMARK  162  A    between atoms: _385  and  _386
REMARK  163  A    between atoms: _389  and  _391
REMARK  164  A    between atoms: _391  and  _392
REMARK  165  A    between atoms: _391  and  _394
REMARK  166  A    between atoms: _394  and  _395
REMARK  167  A    between atoms: _398  and  _400
REMARK  168  A    between atoms: _400  and  _401
REMARK  169  A    between atoms: _400  and  _403
REMARK  170  A    between atoms: _403  and  _404
REMARK  171  A    between atoms: _409  and  _411
REMARK  172  A    between atoms: _411  and  _412
REMARK  173  A    between atoms: _411  and  _414
REMARK  174  A    between atoms: _414  and  _415
REMARK  175  A    between atoms: _417  and  _419
REMARK  176  A    between atoms: _419  and  _420
REMARK  177  A    between atoms: _419  and  _422
REMARK  178  A    between atoms: _422  and  _423
REMARK  179  A    between atoms: _423  and  _424
REMARK  180  A    between atoms: _426  and  _428
REMARK  181  A    between atoms: _428  and  _429
REMARK  182  A    between atoms: _432  and  _434
REMARK  183  A    between atoms: _434  and  _435
REMARK  184  A    between atoms: _434  and  _437
REMARK  185  A    between atoms: _437  and  _438
REMARK  186  A    between atoms: _443  and  _445
REMARK  187  A    between atoms: _445  and  _446
REMARK  188  A    between atoms: _445  and  _448
REMARK  189  A    between atoms: _448  and  _449
REMARK  190  A    between atoms: _455  and  _457
REMARK  191  A    between atoms: _457  and  _458
REMARK  192  A    between atoms: _457  and  _460
REMARK  193  A    between atoms: _460  and  _461
REMARK  194  A    between atoms: _466  and  _467
REMARK  195  A    between atoms: _469  and  _471
REMARK  196  A    between atoms: _471  and  _472
REMARK  197  A    between atoms: _471  and  _474
REMARK  198  A    between atoms: _474  and  _475
REMARK  199  A    between atoms: _478  and  _480
REMARK  200  A    between atoms: _480  and  _481
REMARK  201  A    between atoms: _480  and  _483
REMARK  202  A    between atoms: _483  and  _484
REMARK  203  A    between atoms: _487  and  _489
REMARK  204  A    between atoms: _489  and  _490
REMARK  205  A    between atoms: _489  and  _492
REMARK  206  A    between atoms: _492  and  _493
REMARK  207  A    between atoms: _496  and  _498
REMARK  208  A    between atoms: _498  and  _499
REMARK  209  A    between atoms: _498  and  _501
REMARK  210  A    between atoms: _501  and  _502
REMARK  211  A    between atoms: _507  and  _508
REMARK  212  A    between atoms: _510  and  _512
REMARK  213  A    between atoms: _512  and  _513
REMARK  214  A    between atoms: _512  and  _515
REMARK  215  A    between atoms: _515  and  _516
REMARK  216  A    between atoms: _519  and  _521
REMARK  217  A    between atoms: _521  and  _522
REMARK  218  A    between atoms: _521  and  _524
REMARK  219  A    between atoms: _524  and  _525
REMARK  220  A    between atoms: _525  and  _526
REMARK  221  A    between atoms: _526  and  _527
REMARK  222  A    between atoms: _536  and  _538
REMARK  223  A    between atoms: _538  and  _539
REMARK  224  A    between atoms: _538  and  _541
REMARK  225  A    between atoms: _541  and  _542
REMARK  226  A    between atoms: _548  and  _549
REMARK  227  A    between atoms: _554  and  _556
REMARK  228  A    between atoms: _556  and  _557
REMARK  229  A    between atoms: _556  and  _559
REMARK  230  A    between atoms: _559  and  _560
REMARK  231  A    between atoms: _560  and  _561
REMARK  232  A    between atoms: _563  and  _565
REMARK  233  A    between atoms: _565  and  _566
REMARK  234  A    between atoms: _565  and  _568
REMARK  235  A    between atoms: _571  and  _573
REMARK  236  A    between atoms: _573  and  _574
REMARK  237  A    between atoms: _577  and  _579
REMARK  238  A    between atoms: _579  and  _580
REMARK  239  A    between atoms: _579  and  _582
REMARK  240  A    between atoms: _582  and  _583
REMARK  241  A    between atoms: _586  and  _588
REMARK  242  A    between atoms: _588  and  _589
REMARK  243  A    between atoms: _588  and  _591
REMARK  244  A    between atoms: _591  and  _592
REMARK  245  A    between atoms: _592  and  _593
REMARK  246  A    between atoms: _598  and  _600
REMARK  247  A    between atoms: _600  and  _601
REMARK  248  A    between atoms: _600  and  _603
REMARK  249  A    between atoms: _603  and  _604
REMARK  250  A    between atoms: _607  and  _609
REMARK  251  A    between atoms: _609  and  _610
REMARK  252  A    between atoms: _609  and  _612
REMARK  253  A    between atoms: _614  and  _616
REMARK  254  A    between atoms: _616  and  _617
REMARK  255  A    between atoms: _616  and  _619
REMARK  256  A    between atoms: _619  and  _620
REMARK  257  A    between atoms: _620  and  _621
REMARK  258  A    between atoms: _624  and  _626
REMARK  259  A    between atoms: _626  and  _627
REMARK  260  A    between atoms: _626  and  _629
REMARK  261  A    between atoms: _629  and  _630
REMARK  262  A    between atoms: _630  and  _631
REMARK  263  A    between atoms: _631  and  _632
REMARK  264  A    between atoms: _632  and  _633
REMARK  265  A    between atoms: _637  and  _639
REMARK  266  A    between atoms: _639  and  _640
REMARK  267  A    between atoms: _639  and  _642
REMARK  268  A    between atoms: _642  and  _643
REMARK  269  A    between atoms: _648  and  _650
REMARK  270  A    between atoms: _650  and  _651
REMARK  271  A    between atoms: _650  and  _653
REMARK  272  A    between atoms: _653  and  _654
REMARK  273  A    between atoms: _659  and  _660
REMARK  274  A    between atoms: _662  and  _664
REMARK  275  A    between atoms: _664  and  _665
REMARK  276  A    between atoms: _664  and  _667
REMARK  277  A    between atoms: _667  and  _668
REMARK  278  A    between atoms: _668  and  _669
REMARK  279  A    between atoms: _669  and  _670
REMARK                            x       y       z     vdW  Elec       q    Type
REMARK                         _______ _______ _______ _____ _____    ______ ____
ROOT
ATOM      1  C   GLY A   4      20.004  13.277  12.308  0.00  0.00    +0.243 C 
ATOM      2  N   ALA A   5      18.699  13.587  12.197  0.00  0.00    -0.297 N 
ATOM      3  H   ALA A   5      17.992  12.840  12.351  0.00  0.00    +0.150 HD
ATOM      4  O   GLY A   4      20.892  14.097  12.092  0.00  0.00    -0.273 OA
ENDROOT
BRANCH   2   5
ATOM      5  CA  ALA A   5      18.231  14.953  11.863  0.00  0.00    +0.149 C 
ATOM      6  CB  ALA A   5      18.506  15.282  10.396  0.00  0.00    +0.031 C 
BRANCH   5   7
ATOM      7  C   ALA A   5      16.752  15.122  12.164  0.00  0.00    +0.241 C 
ATOM      8  O   ALA A   5      16.115  14.176  12.618  0.00  0.00    -0.273 OA
ATOM      9  N   MET A   6      16.186  16.299  11.836  0.00  0.00    -0.297 N 
ATOM     10  H   MET A   6      16.766  17.007  11.342  0.00  0.00    +0.150 HD
BRANCH   9  11
ATOM     11  CA  MET A   6      14.791  16.630  12.142  0.00  0.00    +0.149 C 
BRANCH  11  12
ATOM     12  C   MET A   6      14.276  17.590  11.075  0.00  0.00    +0.241 C 
ATOM     13  O   MET A   6      14.933  18.582  10.801  0.00  0.00    -0.273 OA
ATOM     14  N   GLU A   7      13.090  17.306  10.511  0.00  0.00    -0.297 N 
ATOM     15  H   GLU A   7      12.563  16.489  10.881  0.00  0.00    +0.150 HD
BRANCH  14  16
ATOM     16  CA  GLU A   7      12.485  18.065   9.411  0.00  0.00    +0.149 C 
BRANCH  16  17
ATOM     17  C   GLU A   7      11.723  19.364   9.757  0.00  0.00    +0.241 C 
ATOM     18  N   ASN A   8      12.089  20.072  10.828  0.00  0.00    -0.298 N 
ATOM     19  H   ASN A   8      12.881  19.758  11.425  0.00  0.00    +0.150 HD
ATOM     20  O   GLU A   7      10.795  19.738   9.024  0.00  0.00    -0.273 OA
BRANCH  18  21
ATOM     21  CA  ASN A   8      11.349  21.311  11.151  0.00  0.00    +0.146 C 
BRANCH  21  22
ATOM     22  C   ASN A   8      11.190  22.180   9.890  0.00  0.00    +0.227 C 
ATOM     23  O   ASN A   8      12.157  22.375   9.157  0.00  0.00    -0.286 OA
ENDBRANCH  21  22
BRANCH  21  24
ATOM     24  CB  ASN A   8      12.045  22.104  12.225  0.00  0.00    +0.112 C 
BRANCH  24  25
ATOM     25  CG  ASN A   8      12.701  21.255  13.279  0.00  0.00    +0.222 C 
ATOM     26  ND2 ASN A   8      11.892  20.685  14.136  0.00  0.00    -0.329 N 
ATOM     27 HD21 ASN A   8      12.278  20.128  14.925  0.00  0.00    +0.145 HD
ATOM     28 HD22 ASN A   8      10.863  20.789  14.028  0.00  0.00    +0.145 HD
ATOM     29  OD1 ASN A   8      13.935  21.157  13.370  0.00  0.00    -0.275 OA
ENDBRANCH  24  25
ENDBRANCH  21  24
ENDBRANCH  18  21
ENDBRANCH  16  17
BRANCH  16  30
ATOM     30  CB  GLU A   7      11.602  17.137   8.578  0.00  0.00    +0.041 C 
BRANCH  30  31
ATOM     31  CG  GLU A   7      10.301  16.717   9.279  0.00  0.00    +0.116 C 
BRANCH  31  32
ATOM     32  CD  GLU A   7      10.339  15.506  10.192  0.00  0.00    +0.365 C 
ATOM     33  OE2 GLU A   7      11.430  15.144  10.685  0.00  0.00    -0.246 OA
ATOM     34  OE1 GLU A   7       9.265  14.901  10.397  0.00  0.00    -0.246 OA
ENDBRANCH  31  32
ENDBRANCH  30  31
ENDBRANCH  16  30
ENDBRANCH  14  16
ENDBRANCH  11  12
BRANCH  11  35
ATOM     35  CB  MET A   6      14.739  17.325  13.534  0.00  0.00    +0.041 C 
BRANCH  35  36
ATOM     36  CG  MET A   6      13.327  17.698  13.983  0.00  0.00    +0.060 C 
BRANCH  36  37
ATOM     37  SD  MET A   6      12.202  16.258  13.974  0.00  0.00    -0.139 S 
ATOM     38  CE  MET A   6      10.658  17.033  13.342  0.00  0.00    +0.069 C 
ENDBRANCH  36  37
ENDBRANCH  35  36
ENDBRANCH  11  35
ENDBRANCH   9  11
ENDBRANCH   5   7
ENDBRANCH   2   5
BRANCH   1  39
ATOM     39  CA  GLY A   4      20.363  11.838  12.641  0.00  0.00    +0.176 C 
BRANCH  39  42
ATOM     40  C   VAL A   3      20.038  11.601  15.088  0.00  0.00    +0.241 C 
ATOM     41  O   VAL A   3      21.046  12.248  15.383  0.00  0.00    -0.273 OA
ATOM     42  N   GLY A   4      19.681  11.322  13.829  0.00  0.00    -0.295 N 
ATOM     43  H   GLY A   4      18.863  10.696  13.685  0.00  0.00    +0.150 HD
BRANCH  40  44
ATOM     44  CA  VAL A   3      19.158  11.019  16.235  0.00  0.00    +0.149 C 
BRANCH  44  47
ATOM     45  C   ASN A   2      19.682  11.251  18.624  0.00  0.00    +0.241 C 
ATOM     46  O   ASN A   2      19.984  10.063  18.725  0.00  0.00    -0.273 OA
ATOM     47  N   VAL A   3      19.273  11.807  17.479  0.00  0.00    -0.297 N 
ATOM     48  H   VAL A   3      19.030  12.818  17.464  0.00  0.00    +0.150 HD
BRANCH  45  49
ATOM     49  CA  ASN A   2      19.725  12.146  19.841  0.00  0.00    +0.158 C 
BRANCH  49  51
ATOM     50  C   PHE A   1      21.358  13.846  19.055  0.00  0.00    +0.239 C 
ATOM     51  N   ASN A   2      20.126  13.533  19.520  0.00  0.00    -0.297 N 
ATOM     52  H   ASN A   2      19.434  14.298  19.657  0.00  0.00    +0.150 HD
ATOM     53  O   PHE A   1      22.254  13.012  18.902  0.00  0.00    -0.274 OA
BRANCH  50  54
ATOM     54  CA  PHE A   1      21.671  15.318  18.821  0.00  0.00    +0.149 C 
BRANCH  54  55
ATOM     55  N   PHE A   1      22.974  15.620  19.420  0.00  0.00    -0.238 NA
ATOM     56  H   PHE A   1      23.695  14.872  19.478  0.00  0.00    +0.142 HD
ENDBRANCH  54  55
BRANCH  54  57
ATOM     57  CB  PHE A   1      21.693  15.683  17.317  0.00  0.00    +0.053 C 
BRANCH  57  58
ATOM     58  CG  PHE A   1      20.354  16.083  16.739  0.00  0.00    -0.020 A 
ATOM     59  CD2 PHE A   1      19.775  17.307  17.063  0.00  0.00    -0.004 A 
ATOM     60  CE2 PHE A   1      18.518  17.656  16.572  0.00  0.00    -0.000 A 
ATOM     61  CZ  PHE A   1      17.848  16.800  15.716  0.00  0.00    -0.000 A 
ATOM     62  CE1 PHE A   1      18.399  15.579  15.393  0.00  0.00    -0.000 A 
ATOM     63  CD1 PHE A   1      19.664  15.232  15.877  0.00  0.00    -0.004 A 
ENDBRANCH  57  58
ENDBRANCH  54  57
ENDBRANCH  50  54
ENDBRANCH  49  51
BRANCH  49  64
ATOM     64  CB  ASN A   2      18.366  12.124  20.568  0.00  0.00    +0.114 C 
BRANCH  64  65
ATOM     65  CG  ASN A   2      18.474  12.696  21.952  0.00  0.00    +0.222 C 
ATOM     66  OD1 ASN A   2      19.565  12.720  22.540  0.00  0.00    -0.275 OA
ATOM     67  ND2 ASN A   2      17.368  13.219  22.474  0.00  0.00    -0.329 N 
ATOM     68 HD21 ASN A   2      17.398  13.670  23.411  0.00  0.00    +0.145 HD
ATOM     69 HD22 ASN A   2      16.473  13.177  21.946  0.00  0.00    +0.145 HD
ENDBRANCH  64  65
ENDBRANCH  49  64
ENDBRANCH  45  49
ENDBRANCH  44  47
BRANCH  44  70
ATOM     70  CB  VAL A   3      17.660  10.770  15.865  0.00  0.00    +0.027 C 
ATOM     71  CG2 VAL A   3      16.963   9.934  16.938  0.00  0.00    +0.002 C 
ATOM     72  CG1 VAL A   3      16.898  12.080  15.617  0.00  0.00    +0.002 C 
ENDBRANCH  44  70
ENDBRANCH  40  44
ENDBRANCH  39  42
ENDBRANCH   1  39
TORSDOF 29
REMARK  Name = ../refined-set-2016/3t8v/3t8v_pocket.pdb
REMARK  279 active torsions:
REMARK  status: ('A' for Active; 'I' for Inactive)
REMARK    1  A    between atoms: _1  and  _3
REMARK    2  A    between atoms: _3  and  _4
REMARK    3  A    between atoms: _7  and  _9
REMARK    4  A    between atoms: _9  and  _10
REMARK    5  A    between atoms: _9  and  _12
REMARK    6  A    between atoms: _12  and  _13
REMARK    7  A    between atoms: _16  and  _18
REMARK    8  A    between atoms: _18  and  _19
REMARK    9  A    between atoms: _18  and  _21
REMARK   10  A    between atoms: _21  and  _22
REMARK   11  A    between atoms: _25  and  _27
REMARK   12  A    between atoms: _27  and  _28
REMARK   13  A    between atoms: _27  and  _30
REMARK   14  A    between atoms: _30  and  _31
REMARK   15  A    between atoms: _31  and  _32
REMARK   16  A    between atoms: _37  and  _39
REMARK   17  A    between atoms: _39  and  _40
REMARK   18  A    between atoms: _39  and  _42
REMARK   19  A    between atoms: _44  and  _46
REMARK   20  A    between atoms: _46  and  _47
REMARK   21  A    between atoms: _46  and  _49
REMARK   22  A    between atoms: _49  and  _50
REMARK   23  A    between atoms: _50  and  _51
REMARK   24  A    between atoms: _54  and  _56
REMARK   25  A    between atoms: _56  and  _57
REMARK   26  A    between atoms: _60  and  _62
REMARK   27  A    between atoms: _62  and  _63
REMARK   28  A    between atoms: _62  and  _65
REMARK   29  A    between atoms: _65  and  _66
REMARK   30  A    between atoms: _69  and  _71
REMARK   31  A    between atoms: _71  and  _72
REMARK   32  A    between atoms: _74  and  _76
REMARK   33  A    between atoms: _76  and  _77
REMARK   34  A    between atoms: _76  and  _79
REMARK   35  A    between atoms: _79  and  _80
REMARK   36  A    between atoms: _85  and  _86
REMARK   37  A    between atoms: _88  and  _90
REMARK   38  A    between atoms: _90  and  _91
REMARK   39  A    between atoms: _90  and  _93
REMARK   40  A    between atoms: _93  and  _94
REMARK   41  A    between atoms: _100  and  _102
REMARK   42  A    between atoms: _102  and  _103
REMARK   43  A    between atoms: _102  and  _105
REMARK   44  A    between atoms: _105  and  _106
REMARK   45  A    between atoms: _111  and  _113
REMARK   46  A    between atoms: _113  and  _114
REMARK   47  A    between atoms: _113  and  _116
REMARK   48  A    between atoms: _119  and  _121
REMARK   49  A    between atoms: _121  and  _122
REMARK   50  A    between atoms: _124  and  _126
REMARK   51  A    between atoms: _126  and  _127
REMARK   52  A    between atoms: _130  and  _132
REMARK   53  A    between atoms: _132  and  _133
REMARK   54  A    between atoms: _132  and  _135
REMARK   55  A    between atoms: _135  and  _136
REMARK   56  A    between atoms: _136  and  _137
REMARK   57  A    between atoms: _139  and  _141
REMARK   58  A    between atoms: _141  and  _142
REMARK   59  A    between atoms: _141  and  _144
REMARK   60  A    between atoms: _144  and  _145
REMARK   61  A    between atoms: _145  and  _146
REMARK   62  A    between atoms: _149  and  _151
REMARK   63  A    between atoms: _151  and  _152
REMARK   64  A    between atoms: _151  and  _154
REMARK   65  A    between atoms: _154  and  _155
REMARK   66  A    between atoms: _160  and  _162
REMARK   67  A    between atoms: _162  and  _163
REMARK   68  A    between atoms: _162  and  _165
REMARK   69  A    between atoms: _165  and  _166
REMARK   70  A    between atoms: _169  and  _171
REMARK   71  A    between atoms: _171  and  _172
REMARK   72  A    between atoms: _171  and  _174
REMARK   73  A    between atoms: _174  and  _175
REMARK   74  A    between atoms: _181  and  _183
REMARK   75  A    between atoms: _183  and  _184
REMARK   76  A    between atoms: _183  and  _186
REMARK   77  A    between atoms: _186  and  _187
REMARK   78  A    between atoms: _192  and  _194
REMARK   79  A    between atoms: _194  and  _195
REMARK   80  A    between atoms: _194  and  _197
REMARK   81  A    between atoms: _197  and  _198
REMARK   82  A    between atoms: _203  and  _205
REMARK   83  A    between atoms: _205  and  _206
REMARK   84  A    between atoms: _205  and  _208
REMARK   85  A    between atoms: _208  and  _209
REMARK   86  A    between atoms: _211  and  _213
REMARK   87  A    between atoms: _213  and  _214
REMARK   88  A    between atoms: _213  and  _216
REMARK   89  A    between atoms: _216  and  _217
REMARK   90  A    between atoms: _217  and  _218
REMARK   91  A    between atoms: _218  and  _219
REMARK   92  A    between atoms: _228  and  _230
REMARK   93  A    between atoms: _230  and  _231
REMARK   94  A    between atoms: _230  and  _233
REMARK   95  A    between atoms: _233  and  _234
REMARK   96  A    between atoms: _237  and  _239
REMARK   97  A    between atoms: _239  and  _240
REMARK   98  A    between atoms: _239  and  _242
REMARK   99  A    between atoms: _245  and  _247
REMARK  100  A    between atoms: _247  and  _248
REMARK  101  A    between atoms: _247  and  _250
REMARK  102  A    between atoms: _253  and  _255
REMARK  103  A    between atoms: _255  and  _256
REMARK  104  A    between atoms: _258  and  _260
REMARK  105  A    between atoms: _260  and  _261
REMARK  106  A    between atoms: _260  and  _263
REMARK  107  A    between atoms: _263  and  _264
REMARK  108  A    between atoms: _268  and  ZN_679
REMARK  109  A    between atoms: _269  and  _271
REMARK  110  A    between atoms: _271  and  _272
REMARK  111  A    between atoms: _271  and  _274
REMARK  112  A    between atoms: _274  and  _275
REMARK  113  A    between atoms: _275  and  _276
REMARK  114  A    between atoms: _279  and  _281
REMARK  115  A    between atoms: _281  and  _282
REMARK  116  A    between atoms: _281  and  _284
REMARK  117  A    between atoms: _284  and  _285
REMARK  118  A    between atoms: _290  and  _291
REMARK  119  A    between atoms: _293  and  _295
REMARK  120  A    between atoms: _295  and  _296
REMARK  121  A    between atoms: _295  and  _298
REMARK  122  A    between atoms: _298  and  _299
REMARK  123  A    between atoms: _303  and  ZN_679
REMARK  124  A    between atoms: _304  and  _306
REMARK  125  A    between atoms: _306  and  _307
REMARK  126  A    between atoms: _306  and  _309
REMARK  127  A    between atoms: _309  and  _310
REMARK  128  A    between atoms: _320  and  _322
REMARK  129  A    between atoms: _322  and  _323
REMARK  130  A    between atoms: _322  and  _325
REMARK  131  A    between atoms: _325  and  _326
REMARK  132  A    between atoms: _329  and  _331
REMARK  133  A    between atoms: _331  and  _332
REMARK  134  A    between atoms: _331  and  _334
REMARK  135  A    between atoms: _334  and  _335
REMARK  136  A    between atoms: _335  and  _336
REMARK  137  A    between atoms: _336  and  _337
REMARK  138  A    between atoms: _337  and  _338
REMARK  139  A    between atoms: _342  and  _344
REMARK  140  A    between atoms: _344  and  _345
REMARK  141  A    between atoms: _344  and  _347
REMARK  142  A    between atoms: _347  and  _348
REMARK  143  A    between atoms: _348  and  _349
REMARK  144  A    between atoms: _349  and  _350
REMARK  145  A    between atoms: _350  and  ZN_679
REMARK  146  A    between atoms: _352  and  _354
REMARK  147  A    between atoms: _354  and  _355
REMARK  148  A    between atoms: _354  and  _357
REMARK  149  A    between atoms: _357  and  _358
REMARK  150  A    between atoms: _361  and  _363
REMARK  151  A    between atoms: _363  and  _364
REMARK  152  A    between atoms: _363  and  _366
REMARK  153  A    between atoms: _369  and  _371
REMARK  154  A    between atoms: _371  and  _372
REMARK  155  A    between atoms: _371  and  _374
REMARK  156  A    between atoms: _374  and  _375
REMARK  157  A    between atoms: _375  and  _376
REMARK  158  A    between atoms: _379  and  _381
REMARK  159  A    between atoms: _381  and  _382
REMARK  160  A    between atoms: _381  and  _384
REMARK  161  A    between atoms: _384  and  _385
REMARK  162  A    between atoms: _385  and  _386
REMARK  163  A    between atoms: _389  and  _391
REMARK  164  A    between atoms: _391  and  _392
REMARK  165  A    between atoms: _391  and  _394
REMARK  166  A    between atoms: _394  and  _395
REMARK  167  A    between atoms: _398  and  _400
REMARK  168  A    between atoms: _400  and  _401
REMARK  169  A    between atoms: _400  and  _403
REMARK  170  A    between atoms: _403  and  _404
REMARK  171  A    between atoms: _409  and  _411
REMARK  172  A    between atoms: _411  and  _412
REMARK  173  A    between atoms: _411  and  _414
REMARK  174  A    between atoms: _414  and  _415
REMARK  175  A    between atoms: _417  and  _419
REMARK  176  A    between atoms: _419  and  _420
REMARK  177  A    between atoms: _419  and  _422
REMARK  178  A    between atoms: _422  and  _423
REMARK  179  A    between atoms: _423  and  _424
REMARK  180  A    between atoms: _426  and  _428
REMARK  181  A    between atoms: _428  and  _429
REMARK  182  A    between atoms: _432  and  _434
REMARK  183  A    between atoms: _434  and  _435
REMARK  184  A    between atoms: _434  and  _437
REMARK  185  A    between atoms: _437  and  _438
REMARK  186  A    between atoms: _443  and  _445
REMARK  187  A    between atoms: _445  and  _446
REMARK  188  A    between atoms: _445  and  _448
REMARK  189  A    between atoms: _448  and  _449
REMARK  190  A    between atoms: _455  and  _457
REMARK  191  A    between atoms: _457  and  _458
REMARK  192  A    between atoms: _457  and  _460
REMARK  193  A    between atoms: _460  and  _461
REMARK  194  A    between atoms: _466  and  _467
REMARK  195  A    between atoms: _469  and  _471
REMARK  196  A    between atoms: _471  and  _472
REMARK  197  A    between atoms: _471  and  _474
REMARK  198  A    between atoms: _474  and  _475
REMARK  199  A    between atoms: _478  and  _480
REMARK  200  A    between atoms: _480  and  _481
REMARK  201  A    between atoms: _480  and  _483
REMARK  202  A    between atoms: _483  and  _484
REMARK  203  A    between atoms: _487  and  _489
REMARK  204  A    between atoms: _489  and  _490
REMARK  205  A    between atoms: _489  and  _492
REMARK  206  A    between atoms: _492  and  _493
REMARK  207  A    between atoms: _496  and  _498
REMARK  208  A    between atoms: _498  and  _499
REMARK  209  A    between atoms: _498  and  _501
REMARK  210  A    between atoms: _501  and  _502
REMARK  211  A    between atoms: _507  and  _508
REMARK  212  A    between atoms: _510  and  _512
REMARK  213  A    between atoms: _512  and  _513
REMARK  214  A    between atoms: _512  and  _515
REMARK  215  A    between atoms: _515  and  _516
REMARK  216  A    between atoms: _519  and  _521
REMARK  217  A    between atoms: _521  and  _522
REMARK  218  A    between atoms: _521  and  _524
REMARK  219  A    between atoms: _524  and  _525
REMARK  220  A    between atoms: _525  and  _526
REMARK  221  A    between atoms: _526  and  _527
REMARK  222  A    between atoms: _536  and  _538
REMARK  223  A    between atoms: _538  and  _539
REMARK  224  A    between atoms: _538  and  _541
REMARK  225  A    between atoms: _541  and  _542
REMARK  226  A    between atoms: _548  and  _549
REMARK  227  A    between atoms: _554  and  _556
REMARK  228  A    between atoms: _556  and  _557
REMARK  229  A    between atoms: _556  and  _559
REMARK  230  A    between atoms: _559  and  _560
REMARK  231  A    between atoms: _560  and  _561
REMARK  232  A    between atoms: _563  and  _565
REMARK  233  A    between atoms: _565  and  _566
REMARK  234  A    between atoms: _565  and  _568
REMARK  235  A    between atoms: _571  and  _573
REMARK  236  A    between atoms: _573  and  _574
REMARK  237  A    between atoms: _577  and  _579
REMARK  238  A    between atoms: _579  and  _580
REMARK  239  A    between atoms: _579  and  _582
REMARK  240  A    between atoms: _582  and  _583
REMARK  241  A    between atoms: _586  and  _588
REMARK  242  A    between atoms: _588  and  _589
REMARK  243  A    between atoms: _588  and  _591
REMARK  244  A    between atoms: _591  and  _592
REMARK  245  A    between atoms: _592  and  _593
REMARK  246  A    between atoms: _598  and  _600
REMARK  247  A    between atoms: _600  and  _601
REMARK  248  A    between atoms: _600  and  _603
REMARK  249  A    between atoms: _603  and  _604
REMARK  250  A    between atoms: _607  and  _609
REMARK  251  A    between atoms: _609  and  _610
REMARK  252  A    between atoms: _609  and  _612
REMARK  253  A    between atoms: _614  and  _616
REMARK  254  A    between atoms: _616  and  _617
REMARK  255  A    between atoms: _616  and  _619
REMARK  256  A    between atoms: _619  and  _620
REMARK  257  A    between atoms: _620  and  _621
REMARK  258  A    between atoms: _624  and  _626
REMARK  259  A    between atoms: _626  and  _627
REMARK  260  A    between atoms: _626  and  _629
REMARK  261  A    between atoms: _629  and  _630
REMARK  262  A    between atoms: _630  and  _631
REMARK  263  A    between atoms: _631  and  _632
REMARK  264  A    between atoms: _632  and  _633
REMARK  265  A    between atoms: _637  and  _639
REMARK  266  A    between atoms: _639  and  _640
REMARK  267  A    between atoms: _639  and  _642
REMARK  268  A    between atoms: _642  and  _643
REMARK  269  A    between atoms: _648  and  _650
REMARK  270  A    between atoms: _650  and  _651
REMARK  271  A    between atoms: _650  and  _653
REMARK  272  A    between atoms: _653  and  _654
REMARK  273  A    between atoms: _659  and  _660
REMARK  274  A    between atoms: _662  and  _664
REMARK  275  A    between atoms: _664  and  _665
REMARK  276  A    between atoms: _664  and  _667
REMARK  277  A    between atoms: _667  and  _668
REMARK  278  A    between atoms: _668  and  _669
REMARK  279  A    between atoms: _669  and  _670
REMARK                            x       y       z     vdW  Elec       q    Type
REMARK                         _______ _______ _______ _____ _____    ______ ____
ROOT
ATOM      1  CA  PHE A   2      21.060  17.814  11.971  0.00  0.00    +0.153 C 
ENDROOT
BRANCH   1   3
ATOM      2  C   ILE A   1      18.983  19.098  12.177  0.00  0.00    +0.238 C 
ATOM      3  N   PHE A   2      20.324  19.040  12.169  0.00  0.00    -0.297 N 
ATOM      4  H   PHE A   2      20.858  19.921  12.312  0.00  0.00    +0.150 HD
ATOM      5  O   ILE A   1      18.254  18.117  12.150  0.00  0.00    -0.274 OA
BRANCH   2   6
ATOM      6  CA  ILE A   1      18.369  20.475  12.211  0.00  0.00    +0.145 C 
BRANCH   6   7
ATOM      7  N   ILE A   1      17.254  20.511  11.247  0.00  0.00    -0.238 NA
ATOM      8  H   ILE A   1      16.410  19.934  11.438  0.00  0.00    +0.142 HD
ENDBRANCH   6   7
BRANCH   6   9
ATOM      9  CB  ILE A   1      17.907  20.928  13.635  0.00  0.00    +0.025 C 
ATOM     10  CG2 ILE A   1      19.005  20.702  14.693  0.00  0.00    +0.002 C 
BRANCH   9  11
ATOM     11  CG1 ILE A   1      17.473  22.418  13.592  0.00  0.00    +0.002 C 
ATOM     12  CD1 ILE A   1      16.572  22.907  14.778  0.00  0.00    +0.000 C 
ENDBRANCH   9  11
ENDBRANCH   6   9
ENDBRANCH   2   6
ENDBRANCH   1   3
BRANCH   1  13
ATOM     13  C   PHE A   2      22.076  17.559  13.044  0.00  0.00    +0.241 C 
ATOM     14  O   PHE A   2      22.762  18.478  13.501  0.00  0.00    -0.273 OA
ATOM     15  N   ASN A   3      22.263  16.265  13.326  0.00  0.00    -0.298 N 
ATOM     16  H   ASN A   3      21.552  15.580  12.999  0.00  0.00    +0.150 HD
BRANCH  15  17
ATOM     17  CA  ASN A   3      23.406  15.772  14.064  0.00  0.00    +0.146 C 
BRANCH  17  18
ATOM     18  C   ASN A   3      24.568  16.152  13.120  0.00  0.00    +0.227 C 
ATOM     19  O   ASN A   3      24.493  15.865  11.919  0.00  0.00    -0.286 OA
ENDBRANCH  17  18
BRANCH  17  20
ATOM     20  CB  ASN A   3      23.330  14.230  14.184  0.00  0.00    +0.112 C 
BRANCH  20  21
ATOM     21  CG  ASN A   3      24.421  13.613  15.015  0.00  0.00    +0.222 C 
ATOM     22  ND2 ASN A   3      24.065  12.659  15.863  0.00  0.00    -0.329 N 
ATOM     23 HD21 ASN A   3      24.786  12.177  16.437  0.00  0.00    +0.145 HD
ATOM     24 HD22 ASN A   3      23.064  12.392  15.955  0.00  0.00    +0.145 HD
ATOM     25  OD1 ASN A   3      25.588  13.954  14.880  0.00  0.00    -0.275 OA
ENDBRANCH  20  21
ENDBRANCH  17  20
ENDBRANCH  15  17
ENDBRANCH   1  13
BRANCH   1  26
ATOM     26  CB  PHE A   2      21.845  17.892  10.629  0.00  0.00    +0.055 C 
BRANCH  26  27
ATOM     27  CG  PHE A   2      21.009  17.936   9.375  0.00  0.00    -0.020 A 
ATOM     28  CD2 PHE A   2      20.366  19.116   8.982  0.00  0.00    -0.004 A 
ATOM     29  CE2 PHE A   2      19.582  19.154   7.821  0.00  0.00    -0.000 A 
ATOM     30  CZ  PHE A   2      19.461  18.025   7.036  0.00  0.00    -0.000 A 
ATOM     31  CE1 PHE A   2      20.136  16.865   7.381  0.00  0.00    -0.000 A 
ATOM     32  CD1 PHE A   2      20.932  16.832   8.535  0.00  0.00    -0.004 A 
ENDBRANCH  26  27
ENDBRANCH   1  26
TORSDOF 12
REMARK  Name = ../refined-set-2016/3t8v/3t8v_pocket.pdb
REMARK  279 active torsions:
REMARK  status: ('A' for Active; 'I' for Inactive)
REMARK    1  A    between atoms: _1  and  _3
REMARK    2  A    between atoms: _3  and  _4
REMARK    3  A    between atoms: _7  and  _9
REMARK    4  A    between atoms: _9  and  _10
REMARK    5  A    between atoms: _9  and  _12
REMARK    6  A    between atoms: _12  and  _13
REMARK    7  A    between atoms: _16  and  _18
REMARK    8  A    between atoms: _18  and  _19
REMARK    9  A    between atoms: _18  and  _21
REMARK   10  A    between atoms: _21  and  _22
REMARK   11  A    between atoms: _25  and  _27
REMARK   12  A    between atoms: _27  and  _28
REMARK   13  A    between atoms: _27  and  _30
REMARK   14  A    between atoms: _30  and  _31
REMARK   15  A    between atoms: _31  and  _32
REMARK   16  A    between atoms: _37  and  _39
REMARK   17  A    between atoms: _39  and  _40
REMARK   18  A    between atoms: _39  and  _42
REMARK   19  A    between atoms: _44  and  _46
REMARK   20  A    between atoms: _46  and  _47
REMARK   21  A    between atoms: _46  and  _49
REMARK   22  A    between atoms: _49  and  _50
REMARK   23  A    between atoms: _50  and  _51
REMARK   24  A    between atoms: _54  and  _56
REMARK   25  A    between atoms: _56  and  _57
REMARK   26  A    between atoms: _60  and  _62
REMARK   27  A    between atoms: _62  and  _63
REMARK   28  A    between atoms: _62  and  _65
REMARK   29  A    between atoms: _65  and  _66
REMARK   30  A    between atoms: _69  and  _71
REMARK   31  A    between atoms: _71  and  _72
REMARK   32  A    between atoms: _74  and  _76
REMARK   33  A    between atoms: _76  and  _77
REMARK   34  A    between atoms: _76  and  _79
REMARK   35  A    between atoms: _79  and  _80
REMARK   36  A    between atoms: _85  and  _86
REMARK   37  A    between atoms: _88  and  _90
REMARK   38  A    between atoms: _90  and  _91
REMARK   39  A    between atoms: _90  and  _93
REMARK   40  A    between atoms: _93  and  _94
REMARK   41  A    between atoms: _100  and  _102
REMARK   42  A    between atoms: _102  and  _103
REMARK   43  A    between atoms: _102  and  _105
REMARK   44  A    between atoms: _105  and  _106
REMARK   45  A    between atoms: _111  and  _113
REMARK   46  A    between atoms: _113  and  _114
REMARK   47  A    between atoms: _113  and  _116
REMARK   48  A    between atoms: _119  and  _121
REMARK   49  A    between atoms: _121  and  _122
REMARK   50  A    between atoms: _124  and  _126
REMARK   51  A    between atoms: _126  and  _127
REMARK   52  A    between atoms: _130  and  _132
REMARK   53  A    between atoms: _132  and  _133
REMARK   54  A    between atoms: _132  and  _135
REMARK   55  A    between atoms: _135  and  _136
REMARK   56  A    between atoms: _136  and  _137
REMARK   57  A    between atoms: _139  and  _141
REMARK   58  A    between atoms: _141  and  _142
REMARK   59  A    between atoms: _141  and  _144
REMARK   60  A    between atoms: _144  and  _145
REMARK   61  A    between atoms: _145  and  _146
REMARK   62  A    between atoms: _149  and  _151
REMARK   63  A    between atoms: _151  and  _152
REMARK   64  A    between atoms: _151  and  _154
REMARK   65  A    between atoms: _154  and  _155
REMARK   66  A    between atoms: _160  and  _162
REMARK   67  A    between atoms: _162  and  _163
REMARK   68  A    between atoms: _162  and  _165
REMARK   69  A    between atoms: _165  and  _166
REMARK   70  A    between atoms: _169  and  _171
REMARK   71  A    between atoms: _171  and  _172
REMARK   72  A    between atoms: _171  and  _174
REMARK   73  A    between atoms: _174  and  _175
REMARK   74  A    between atoms: _181  and  _183
REMARK   75  A    between atoms: _183  and  _184
REMARK   76  A    between atoms: _183  and  _186
REMARK   77  A    between atoms: _186  and  _187
REMARK   78  A    between atoms: _192  and  _194
REMARK   79  A    between atoms: _194  and  _195
REMARK   80  A    between atoms: _194  and  _197
REMARK   81  A    between atoms: _197  and  _198
REMARK   82  A    between atoms: _203  and  _205
REMARK   83  A    between atoms: _205  and  _206
REMARK   84  A    between atoms: _205  and  _208
REMARK   85  A    between atoms: _208  and  _209
REMARK   86  A    between atoms: _211  and  _213
REMARK   87  A    between atoms: _213  and  _214
REMARK   88  A    between atoms: _213  and  _216
REMARK   89  A    between atoms: _216  and  _217
REMARK   90  A    between atoms: _217  and  _218
REMARK   91  A    between atoms: _218  and  _219
REMARK   92  A    between atoms: _228  and  _230
REMARK   93  A    between atoms: _230  and  _231
REMARK   94  A    between atoms: _230  and  _233
REMARK   95  A    between atoms: _233  and  _234
REMARK   96  A    between atoms: _237  and  _239
REMARK   97  A    between atoms: _239  and  _240
REMARK   98  A    between atoms: _239  and  _242
REMARK   99  A    between atoms: _245  and  _247
REMARK  100  A    between atoms: _247  and  _248
REMARK  101  A    between atoms: _247  and  _250
REMARK  102  A    between atoms: _253  and  _255
REMARK  103  A    between atoms: _255  and  _256
REMARK  104  A    between atoms: _258  and  _260
REMARK  105  A    between atoms: _260  and  _261
REMARK  106  A    between atoms: _260  and  _263
REMARK  107  A    between atoms: _263  and  _264
REMARK  108  A    between atoms: _268  and  ZN_679
REMARK  109  A    between atoms: _269  and  _271
REMARK  110  A    between atoms: _271  and  _272
REMARK  111  A    between atoms: _271  and  _274
REMARK  112  A    between atoms: _274  and  _275
REMARK  113  A    between atoms: _275  and  _276
REMARK  114  A    between atoms: _279  and  _281
REMARK  115  A    between atoms: _281  and  _282
REMARK  116  A    between atoms: _281  and  _284
REMARK  117  A    between atoms: _284  and  _285
REMARK  118  A    between atoms: _290  and  _291
REMARK  119  A    between atoms: _293  and  _295
REMARK  120  A    between atoms: _295  and  _296
REMARK  121  A    between atoms: _295  and  _298
REMARK  122  A    between atoms: _298  and  _299
REMARK  123  A    between atoms: _303  and  ZN_679
REMARK  124  A    between atoms: _304  and  _306
REMARK  125  A    between atoms: _306  and  _307
REMARK  126  A    between atoms: _306  and  _309
REMARK  127  A    between atoms: _309  and  _310
REMARK  128  A    between atoms: _320  and  _322
REMARK  129  A    between atoms: _322  and  _323
REMARK  130  A    between atoms: _322  and  _325
REMARK  131  A    between atoms: _325  and  _326
REMARK  132  A    between atoms: _329  and  _331
REMARK  133  A    between atoms: _331  and  _332
REMARK  134  A    between atoms: _331  and  _334
REMARK  135  A    between atoms: _334  and  _335
REMARK  136  A    between atoms: _335  and  _336
REMARK  137  A    between atoms: _336  and  _337
REMARK  138  A    between atoms: _337  and  _338
REMARK  139  A    between atoms: _342  and  _344
REMARK  140  A    between atoms: _344  and  _345
REMARK  141  A    between atoms: _344  and  _347
REMARK  142  A    between atoms: _347  and  _348
REMARK  143  A    between atoms: _348  and  _349
REMARK  144  A    between atoms: _349  and  _350
REMARK  145  A    between atoms: _350  and  ZN_679
REMARK  146  A    between atoms: _352  and  _354
REMARK  147  A    between atoms: _354  and  _355
REMARK  148  A    between atoms: _354  and  _357
REMARK  149  A    between atoms: _357  and  _358
REMARK  150  A    between atoms: _361  and  _363
REMARK  151  A    between atoms: _363  and  _364
REMARK  152  A    between atoms: _363  and  _366
REMARK  153  A    between atoms: _369  and  _371
REMARK  154  A    between atoms: _371  and  _372
REMARK  155  A    between atoms: _371  and  _374
REMARK  156  A    between atoms: _374  and  _375
REMARK  157  A    between atoms: _375  and  _376
REMARK  158  A    between atoms: _379  and  _381
REMARK  159  A    between atoms: _381  and  _382
REMARK  160  A    between atoms: _381  and  _384
REMARK  161  A    between atoms: _384  and  _385
REMARK  162  A    between atoms: _385  and  _386
REMARK  163  A    between atoms: _389  and  _391
REMARK  164  A    between atoms: _391  and  _392
REMARK  165  A    between atoms: _391  and  _394
REMARK  166  A    between atoms: _394  and  _395
REMARK  167  A    between atoms: _398  and  _400
REMARK  168  A    between atoms: _400  and  _401
REMARK  169  A    between atoms: _400  and  _403
REMARK  170  A    between atoms: _403  and  _404
REMARK  171  A    between atoms: _409  and  _411
REMARK  172  A    between atoms: _411  and  _412
REMARK  173  A    between atoms: _411  and  _414
REMARK  174  A    between atoms: _414  and  _415
REMARK  175  A    between atoms: _417  and  _419
REMARK  176  A    between atoms: _419  and  _420
REMARK  177  A    between atoms: _419  and  _422
REMARK  178  A    between atoms: _422  and  _423
REMARK  179  A    between atoms: _423  and  _424
REMARK  180  A    between atoms: _426  and  _428
REMARK  181  A    between atoms: _428  and  _429
REMARK  182  A    between atoms: _432  and  _434
REMARK  183  A    between atoms: _434  and  _435
REMARK  184  A    between atoms: _434  and  _437
REMARK  185  A    between atoms: _437  and  _438
REMARK  186  A    between atoms: _443  and  _445
REMARK  187  A    between atoms: _445  and  _446
REMARK  188  A    between atoms: _445  and  _448
REMARK  189  A    between atoms: _448  and  _449
REMARK  190  A    between atoms: _455  and  _457
REMARK  191  A    between atoms: _457  and  _458
REMARK  192  A    between atoms: _457  and  _460
REMARK  193  A    between atoms: _460  and  _461
REMARK  194  A    between atoms: _466  and  _467
REMARK  195  A    between atoms: _469  and  _471
REMARK  196  A    between atoms: _471  and  _472
REMARK  197  A    between atoms: _471  and  _474
REMARK  198  A    between atoms: _474  and  _475
REMARK  199  A    between atoms: _478  and  _480
REMARK  200  A    between atoms: _480  and  _481
REMARK  201  A    between atoms: _480  and  _483
REMARK  202  A    between atoms: _483  and  _484
REMARK  203  A    between atoms: _487  and  _489
REMARK  204  A    between atoms: _489  and  _490
REMARK  205  A    between atoms: _489  and  _492
REMARK  206  A    between atoms: _492  and  _493
REMARK  207  A    between atoms: _496  and  _498
REMARK  208  A    between atoms: _498  and  _499
REMARK  209  A    between atoms: _498  and  _501
REMARK  210  A    between atoms: _501  and  _502
REMARK  211  A    between atoms: _507  and  _508
REMARK  212  A    between atoms: _510  and  _512
REMARK  213  A    between atoms: _512  and  _513
REMARK  214  A    between atoms: _512  and  _515
REMARK  215  A    between atoms: _515  and  _516
REMARK  216  A    between atoms: _519  and  _521
REMARK  217  A    between atoms: _521  and  _522
REMARK  218  A    between atoms: _521  and  _524
REMARK  219  A    between atoms: _524  and  _525
REMARK  220  A    between atoms: _525  and  _526
REMARK  221  A    between atoms: _526  and  _527
REMARK  222  A    between atoms: _536  and  _538
REMARK  223  A    between atoms: _538  and  _539
REMARK  224  A    between atoms: _538  and  _541
REMARK  225  A    between atoms: _541  and  _542
REMARK  226  A    between atoms: _548  and  _549
REMARK  227  A    between atoms: _554  and  _556
REMARK  228  A    between atoms: _556  and  _557
REMARK  229  A    between atoms: _556  and  _559
REMARK  230  A    between atoms: _559  and  _560
REMARK  231  A    between atoms: _560  and  _561
REMARK  232  A    between atoms: _563  and  _565
REMARK  233  A    between atoms: _565  and  _566
REMARK  234  A    between atoms: _565  and  _568
REMARK  235  A    between atoms: _571  and  _573
REMARK  236  A    between atoms: _573  and  _574
REMARK  237  A    between atoms: _577  and  _579
REMARK  238  A    between atoms: _579  and  _580
REMARK  239  A    between atoms: _579  and  _582
REMARK  240  A    between atoms: _582  and  _583
REMARK  241  A    between atoms: _586  and  _588
REMARK  242  A    between atoms: _588  and  _589
REMARK  243  A    between atoms: _588  and  _591
REMARK  244  A    between atoms: _591  and  _592
REMARK  245  A    between atoms: _592  and  _593
REMARK  246  A    between atoms: _598  and  _600
REMARK  247  A    between atoms: _600  and  _601
REMARK  248  A    between atoms: _600  and  _603
REMARK  249  A    between atoms: _603  and  _604
REMARK  250  A    between atoms: _607  and  _609
REMARK  251  A    between atoms: _609  and  _610
REMARK  252  A    between atoms: _609  and  _612
REMARK  253  A    between atoms: _614  and  _616
REMARK  254  A    between atoms: _616  and  _617
REMARK  255  A    between atoms: _616  and  _619
REMARK  256  A    between atoms: _619  and  _620
REMARK  257  A    between atoms: _620  and  _621
REMARK  258  A    between atoms: _624  and  _626
REMARK  259  A    between atoms: _626  and  _627
REMARK  260  A    between atoms: _626  and  _629
REMARK  261  A    between atoms: _629  and  _630
REMARK  262  A    between atoms: _630  and  _631
REMARK  263  A    between atoms: _631  and  _632
REMARK  264  A    between atoms: _632  and  _633
REMARK  265  A    between atoms: _637  and  _639
REMARK  266  A    between atoms: _639  and  _640
REMARK  267  A    between atoms: _639  and  _642
REMARK  268  A    between atoms: _642  and  _643
REMARK  269  A    between atoms: _648  and  _650
REMARK  270  A    between atoms: _650  and  _651
REMARK  271  A    between atoms: _650  and  _653
REMARK  272  A    between atoms: _653  and  _654
REMARK  273  A    between atoms: _659  and  _660
REMARK  274  A    between atoms: _662  and  _664
REMARK  275  A    between atoms: _664  and  _665
REMARK  276  A    between atoms: _664  and  _667
REMARK  277  A    between atoms: _667  and  _668
REMARK  278  A    between atoms: _668  and  _669
REMARK  279  A    between atoms: _669  and  _670
REMARK                            x       y       z     vdW  Elec       q    Type
REMARK                         _______ _______ _______ _____ _____    ______ ____
ROOT
ATOM      1  C   ASN A   1      26.899  13.167  10.554  0.00  0.00    +0.239 C 
ATOM      2  N   SER A   2      25.709  13.778  10.398  0.00  0.00    -0.296 N 
ATOM      3  H   SER A   2      25.403  14.449  11.132  0.00  0.00    +0.150 HD
ATOM      4  O   ASN A   1      27.337  12.360   9.738  0.00  0.00    -0.274 OA
ENDROOT
BRANCH   1   5
ATOM      5  CA  ASN A   1      27.720  13.518  11.817  0.00  0.00    +0.154 C 
BRANCH   5   6
ATOM      6  N   ASN A   1      27.245  14.720  12.552  0.00  0.00    -0.238 NA
ATOM      7  H   ASN A   1      26.855  14.607  13.509  0.00  0.00    +0.142 HD
ENDBRANCH   5   6
BRANCH   5   8
ATOM      8  CB  ASN A   1      27.899  12.293  12.753  0.00  0.00    +0.111 C 
BRANCH   8   9
ATOM      9  CG  ASN A   1      26.624  11.613  13.211  0.00  0.00    +0.221 C 
ATOM     10  ND2 ASN A   1      26.743  10.786  14.256  0.00  0.00    -0.329 N 
ATOM     11 HD21 ASN A   1      27.666  10.661  14.718  0.00  0.00    +0.145 HD
ATOM     12 HD22 ASN A   1      25.912  10.268  14.607  0.00  0.00    +0.145 HD
ATOM     13  OD1 ASN A   1      25.533  11.784  12.637  0.00  0.00    -0.275 OA
ENDBRANCH   8   9
ENDBRANCH   5   8
ENDBRANCH   1   5
BRANCH   2  14
ATOM     14  CA  SER A   2      24.825  13.554   9.261  0.00  0.00    +0.166 C 
BRANCH  14  15
ATOM     15  C   SER A   2      24.699  14.781   8.337  0.00  0.00    +0.229 C 
ATOM     16  O   SER A   2      23.852  14.776   7.442  0.00  0.00    -0.286 OA
ENDBRANCH  14  15
BRANCH  14  17
ATOM     17  CB  SER A   2      23.465  13.060   9.746  0.00  0.00    +0.165 C 
BRANCH  17  18
ATOM     18  OG  SER A   2      23.645  11.835  10.436  0.00  0.00    -0.380 OA
ATOM     19  H   SER A   2      24.246  11.978  11.209  0.00  0.00    +0.211 HD
ENDBRANCH  17  18
ENDBRANCH  14  17
ENDBRANCH   2  14
TORSDOF 8
REMARK  Name = ../refined-set-2016/3t8v/3t8v_pocket.pdb
REMARK  279 active torsions:
REMARK  status: ('A' for Active; 'I' for Inactive)
REMARK    1  A    between atoms: _1  and  _3
REMARK    2  A    between atoms: _3  and  _4
REMARK    3  A    between atoms: _7  and  _9
REMARK    4  A    between atoms: _9  and  _10
REMARK    5  A    between atoms: _9  and  _12
REMARK    6  A    between atoms: _12  and  _13
REMARK    7  A    between atoms: _16  and  _18
REMARK    8  A    between atoms: _18  and  _19
REMARK    9  A    between atoms: _18  and  _21
REMARK   10  A    between atoms: _21  and  _22
REMARK   11  A    between atoms: _25  and  _27
REMARK   12  A    between atoms: _27  and  _28
REMARK   13  A    between atoms: _27  and  _30
REMARK   14  A    between atoms: _30  and  _31
REMARK   15  A    between atoms: _31  and  _32
REMARK   16  A    between atoms: _37  and  _39
REMARK   17  A    between atoms: _39  and  _40
REMARK   18  A    between atoms: _39  and  _42
REMARK   19  A    between atoms: _44  and  _46
REMARK   20  A    between atoms: _46  and  _47
REMARK   21  A    between atoms: _46  and  _49
REMARK   22  A    between atoms: _49  and  _50
REMARK   23  A    between atoms: _50  and  _51
REMARK   24  A    between atoms: _54  and  _56
REMARK   25  A    between atoms: _56  and  _57
REMARK   26  A    between atoms: _60  and  _62
REMARK   27  A    between atoms: _62  and  _63
REMARK   28  A    between atoms: _62  and  _65
REMARK   29  A    between atoms: _65  and  _66
REMARK   30  A    between atoms: _69  and  _71
REMARK   31  A    between atoms: _71  and  _72
REMARK   32  A    between atoms: _74  and  _76
REMARK   33  A    between atoms: _76  and  _77
REMARK   34  A    between atoms: _76  and  _79
REMARK   35  A    between atoms: _79  and  _80
REMARK   36  A    between atoms: _85  and  _86
REMARK   37  A    between atoms: _88  and  _90
REMARK   38  A    between atoms: _90  and  _91
REMARK   39  A    between atoms: _90  and  _93
REMARK   40  A    between atoms: _93  and  _94
REMARK   41  A    between atoms: _100  and  _102
REMARK   42  A    between atoms: _102  and  _103
REMARK   43  A    between atoms: _102  and  _105
REMARK   44  A    between atoms: _105  and  _106
REMARK   45  A    between atoms: _111  and  _113
REMARK   46  A    between atoms: _113  and  _114
REMARK   47  A    between atoms: _113  and  _116
REMARK   48  A    between atoms: _119  and  _121
REMARK   49  A    between atoms: _121  and  _122
REMARK   50  A    between atoms: _124  and  _126
REMARK   51  A    between atoms: _126  and  _127
REMARK   52  A    between atoms: _130  and  _132
REMARK   53  A    between atoms: _132  and  _133
REMARK   54  A    between atoms: _132  and  _135
REMARK   55  A    between atoms: _135  and  _136
REMARK   56  A    between atoms: _136  and  _137
REMARK   57  A    between atoms: _139  and  _141
REMARK   58  A    between atoms: _141  and  _142
REMARK   59  A    between atoms: _141  and  _144
REMARK   60  A    between atoms: _144  and  _145
REMARK   61  A    between atoms: _145  and  _146
REMARK   62  A    between atoms: _149  and  _151
REMARK   63  A    between atoms: _151  and  _152
REMARK   64  A    between atoms: _151  and  _154
REMARK   65  A    between atoms: _154  and  _155
REMARK   66  A    between atoms: _160  and  _162
REMARK   67  A    between atoms: _162  and  _163
REMARK   68  A    between atoms: _162  and  _165
REMARK   69  A    between atoms: _165  and  _166
REMARK   70  A    between atoms: _169  and  _171
REMARK   71  A    between atoms: _171  and  _172
REMARK   72  A    between atoms: _171  and  _174
REMARK   73  A    between atoms: _174  and  _175
REMARK   74  A    between atoms: _181  and  _183
REMARK   75  A    between atoms: _183  and  _184
REMARK   76  A    between atoms: _183  and  _186
REMARK   77  A    between atoms: _186  and  _187
REMARK   78  A    between atoms: _192  and  _194
REMARK   79  A    between atoms: _194  and  _195
REMARK   80  A    between atoms: _194  and  _197
REMARK   81  A    between atoms: _197  and  _198
REMARK   82  A    between atoms: _203  and  _205
REMARK   83  A    between atoms: _205  and  _206
REMARK   84  A    between atoms: _205  and  _208
REMARK   85  A    between atoms: _208  and  _209
REMARK   86  A    between atoms: _211  and  _213
REMARK   87  A    between atoms: _213  and  _214
REMARK   88  A    between atoms: _213  and  _216
REMARK   89  A    between atoms: _216  and  _217
REMARK   90  A    between atoms: _217  and  _218
REMARK   91  A    between atoms: _218  and  _219
REMARK   92  A    between atoms: _228  and  _230
REMARK   93  A    between atoms: _230  and  _231
REMARK   94  A    between atoms: _230  and  _233
REMARK   95  A    between atoms: _233  and  _234
REMARK   96  A    between atoms: _237  and  _239
REMARK   97  A    between atoms: _239  and  _240
REMARK   98  A    between atoms: _239  and  _242
REMARK   99  A    between atoms: _245  and  _247
REMARK  100  A    between atoms: _247  and  _248
REMARK  101  A    between atoms: _247  and  _250
REMARK  102  A    between atoms: _253  and  _255
REMARK  103  A    between atoms: _255  and  _256
REMARK  104  A    between atoms: _258  and  _260
REMARK  105  A    between atoms: _260  and  _261
REMARK  106  A    between atoms: _260  and  _263
REMARK  107  A    between atoms: _263  and  _264
REMARK  108  A    between atoms: _268  and  ZN_679
REMARK  109  A    between atoms: _269  and  _271
REMARK  110  A    between atoms: _271  and  _272
REMARK  111  A    between atoms: _271  and  _274
REMARK  112  A    between atoms: _274  and  _275
REMARK  113  A    between atoms: _275  and  _276
REMARK  114  A    between atoms: _279  and  _281
REMARK  115  A    between atoms: _281  and  _282
REMARK  116  A    between atoms: _281  and  _284
REMARK  117  A    between atoms: _284  and  _285
REMARK  118  A    between atoms: _290  and  _291
REMARK  119  A    between atoms: _293  and  _295
REMARK  120  A    between atoms: _295  and  _296
REMARK  121  A    between atoms: _295  and  _298
REMARK  122  A    between atoms: _298  and  _299
REMARK  123  A    between atoms: _303  and  ZN_679
REMARK  124  A    between atoms: _304  and  _306
REMARK  125  A    between atoms: _306  and  _307
REMARK  126  A    between atoms: _306  and  _309
REMARK  127  A    between atoms: _309  and  _310
REMARK  128  A    between atoms: _320  and  _322
REMARK  129  A    between atoms: _322  and  _323
REMARK  130  A    between atoms: _322  and  _325
REMARK  131  A    between atoms: _325  and  _326
REMARK  132  A    between atoms: _329  and  _331
REMARK  133  A    between atoms: _331  and  _332
REMARK  134  A    between atoms: _331  and  _334
REMARK  135  A    between atoms: _334  and  _335
REMARK  136  A    between atoms: _335  and  _336
REMARK  137  A    between atoms: _336  and  _337
REMARK  138  A    between atoms: _337  and  _338
REMARK  139  A    between atoms: _342  and  _344
REMARK  140  A    between atoms: _344  and  _345
REMARK  141  A    between atoms: _344  and  _347
REMARK  142  A    between atoms: _347  and  _348
REMARK  143  A    between atoms: _348  and  _349
REMARK  144  A    between atoms: _349  and  _350
REMARK  145  A    between atoms: _350  and  ZN_679
REMARK  146  A    between atoms: _352  and  _354
REMARK  147  A    between atoms: _354  and  _355
REMARK  148  A    between atoms: _354  and  _357
REMARK  149  A    between atoms: _357  and  _358
REMARK  150  A    between atoms: _361  and  _363
REMARK  151  A    between atoms: _363  and  _364
REMARK  152  A    between atoms: _363  and  _366
REMARK  153  A    between atoms: _369  and  _371
REMARK  154  A    between atoms: _371  and  _372
REMARK  155  A    between atoms: _371  and  _374
REMARK  156  A    between atoms: _374  and  _375
REMARK  157  A    between atoms: _375  and  _376
REMARK  158  A    between atoms: _379  and  _381
REMARK  159  A    between atoms: _381  and  _382
REMARK  160  A    between atoms: _381  and  _384
REMARK  161  A    between atoms: _384  and  _385
REMARK  162  A    between atoms: _385  and  _386
REMARK  163  A    between atoms: _389  and  _391
REMARK  164  A    between atoms: _391  and  _392
REMARK  165  A    between atoms: _391  and  _394
REMARK  166  A    between atoms: _394  and  _395
REMARK  167  A    between atoms: _398  and  _400
REMARK  168  A    between atoms: _400  and  _401
REMARK  169  A    between atoms: _400  and  _403
REMARK  170  A    between atoms: _403  and  _404
REMARK  171  A    between atoms: _409  and  _411
REMARK  172  A    between atoms: _411  and  _412
REMARK  173  A    between atoms: _411  and  _414
REMARK  174  A    between atoms: _414  and  _415
REMARK  175  A    between atoms: _417  and  _419
REMARK  176  A    between atoms: _419  and  _420
REMARK  177  A    between atoms: _419  and  _422
REMARK  178  A    between atoms: _422  and  _423
REMARK  179  A    between atoms: _423  and  _424
REMARK  180  A    between atoms: _426  and  _428
REMARK  181  A    between atoms: _428  and  _429
REMARK  182  A    between atoms: _432  and  _434
REMARK  183  A    between atoms: _434  and  _435
REMARK  184  A    between atoms: _434  and  _437
REMARK  185  A    between atoms: _437  and  _438
REMARK  186  A    between atoms: _443  and  _445
REMARK  187  A    between atoms: _445  and  _446
REMARK  188  A    between atoms: _445  and  _448
REMARK  189  A    between atoms: _448  and  _449
REMARK  190  A    between atoms: _455  and  _457
REMARK  191  A    between atoms: _457  and  _458
REMARK  192  A    between atoms: _457  and  _460
REMARK  193  A    between atoms: _460  and  _461
REMARK  194  A    between atoms: _466  and  _467
REMARK  195  A    between atoms: _469  and  _471
REMARK  196  A    between atoms: _471  and  _472
REMARK  197  A    between atoms: _471  and  _474
REMARK  198  A    between atoms: _474  and  _475
REMARK  199  A    between atoms: _478  and  _480
REMARK  200  A    between atoms: _480  and  _481
REMARK  201  A    between atoms: _480  and  _483
REMARK  202  A    between atoms: _483  and  _484
REMARK  203  A    between atoms: _487  and  _489
REMARK  204  A    between atoms: _489  and  _490
REMARK  205  A    between atoms: _489  and  _492
REMARK  206  A    between atoms: _492  and  _493
REMARK  207  A    between atoms: _496  and  _498
REMARK  208  A    between atoms: _498  and  _499
REMARK  209  A    between atoms: _498  and  _501
REMARK  210  A    between atoms: _501  and  _502
REMARK  211  A    between atoms: _507  and  _508
REMARK  212  A    between atoms: _510  and  _512
REMARK  213  A    between atoms: _512  and  _513
REMARK  214  A    between atoms: _512  and  _515
REMARK  215  A    between atoms: _515  and  _516
REMARK  216  A    between atoms: _519  and  _521
REMARK  217  A    between atoms: _521  and  _522
REMARK  218  A    between atoms: _521  and  _524
REMARK  219  A    between atoms: _524  and  _525
REMARK  220  A    between atoms: _525  and  _526
REMARK  221  A    between atoms: _526  and  _527
REMARK  222  A    between atoms: _536  and  _538
REMARK  223  A    between atoms: _538  and  _539
REMARK  224  A    between atoms: _538  and  _541
REMARK  225  A    between atoms: _541  and  _542
REMARK  226  A    between atoms: _548  and  _549
REMARK  227  A    between atoms: _554  and  _556
REMARK  228  A    between atoms: _556  and  _557
REMARK  229  A    between atoms: _556  and  _559
REMARK  230  A    between atoms: _559  and  _560
REMARK  231  A    between atoms: _560  and  _561
REMARK  232  A    between atoms: _563  and  _565
REMARK  233  A    between atoms: _565  and  _566
REMARK  234  A    between atoms: _565  and  _568
REMARK  235  A    between atoms: _571  and  _573
REMARK  236  A    between atoms: _573  and  _574
REMARK  237  A    between atoms: _577  and  _579
REMARK  238  A    between atoms: _579  and  _580
REMARK  239  A    between atoms: _579  and  _582
REMARK  240  A    between atoms: _582  and  _583
REMARK  241  A    between atoms: _586  and  _588
REMARK  242  A    between atoms: _588  and  _589
REMARK  243  A    between atoms: _588  and  _591
REMARK  244  A    between atoms: _591  and  _592
REMARK  245  A    between atoms: _592  and  _593
REMARK  246  A    between atoms: _598  and  _600
REMARK  247  A    between atoms: _600  and  _601
REMARK  248  A    between atoms: _600  and  _603
REMARK  249  A    between atoms: _603  and  _604
REMARK  250  A    between atoms: _607  and  _609
REMARK  251  A    between atoms: _609  and  _610
REMARK  252  A    between atoms: _609  and  _612
REMARK  253  A    between atoms: _614  and  _616
REMARK  254  A    between atoms: _616  and  _617
REMARK  255  A    between atoms: _616  and  _619
REMARK  256  A    between atoms: _619  and  _620
REMARK  257  A    between atoms: _620  and  _621
REMARK  258  A    between atoms: _624  and  _626
REMARK  259  A    between atoms: _626  and  _627
REMARK  260  A    between atoms: _626  and  _629
REMARK  261  A    between atoms: _629  and  _630
REMARK  262  A    between atoms: _630  and  _631
REMARK  263  A    between atoms: _631  and  _632
REMARK  264  A    between atoms: _632  and  _633
REMARK  265  A    between atoms: _637  and  _639
REMARK  266  A    between atoms: _639  and  _640
REMARK  267  A    between atoms: _639  and  _642
REMARK  268  A    between atoms: _642  and  _643
REMARK  269  A    between atoms: _648  and  _650
REMARK  270  A    between atoms: _650  and  _651
REMARK  271  A    between atoms: _650  and  _653
REMARK  272  A    between atoms: _653  and  _654
REMARK  273  A    between atoms: _659  and  _660
REMARK  274  A    between atoms: _662  and  _664
REMARK  275  A    between atoms: _664  and  _665
REMARK  276  A    between atoms: _664  and  _667
REMARK  277  A    between atoms: _667  and  _668
REMARK  278  A    between atoms: _668  and  _669
REMARK  279  A    between atoms: _669  and  _670
REMARK                            x       y       z     vdW  Elec       q    Type
REMARK                         _______ _______ _______ _____ _____    ______ ____
ROOT
ATOM      1  NE  ARG A   1      23.351   9.075   9.349  0.00  0.00    -0.265 N 
ATOM      2  HE  ARG A   1      23.821   9.827   9.891  0.00  0.00    +0.259 HD
ATOM      3  CZ  ARG A   1      22.184   8.624   9.796  0.00  0.00    +0.342 C 
ATOM      4  NH2 ARG A   1      21.643   9.142  10.890  0.00  0.00    -0.292 N 
ATOM      5 HH21 ARG A   1      22.132   9.904  11.401  0.00  0.00    +0.255 HD
ATOM      6 HH22 ARG A   1      20.729   8.786  11.237  0.00  0.00    +0.255 HD
ATOM      7  NH1 ARG A   1      21.532   7.673   9.131  0.00  0.00    -0.292 N 
ATOM      8 HH11 ARG A   1      20.619   7.324   9.485  0.00  0.00    +0.255 HD
ATOM      9 HH12 ARG A   1      21.936   7.279   8.257  0.00  0.00    +0.255 HD
ENDROOT
BRANCH   1  10
ATOM     10  CD  ARG A   1      24.017   8.583   8.145  0.00  0.00    +0.174 C 
BRANCH  10  11
ATOM     11  CG  ARG A   1      25.103   9.528   7.706  0.00  0.00    +0.045 C 
BRANCH  11  12
ATOM     12  CB  ARG A   1      25.803   9.076   6.417  0.00  0.00    +0.029 C 
BRANCH  12  13
ATOM     13  CA  ARG A   1      24.981   9.207   5.122  0.00  0.00    +0.133 C 
BRANCH  13  14
ATOM     14  N   ARG A   1      25.811   8.851   3.965  0.00  0.00    -0.239 NA
ATOM     15  H   ARG A   1      26.829   8.692   4.103  0.00  0.00    +0.142 HD
ENDBRANCH  13  14
BRANCH  13  16
ATOM     16  C   ARG A   1      24.359  10.609   4.980  0.00  0.00    +0.224 C 
ATOM     17  O   ARG A   1      23.163  10.778   5.239  0.00  0.00    -0.287 OA
ENDBRANCH  13  16
ENDBRANCH  12  13
ENDBRANCH  11  12
ENDBRANCH  10  11
ENDBRANCH   1  10
TORSDOF 6
REMARK  Name = ../refined-set-2016/3t8v/3t8v_pocket.pdb
REMARK  279 active torsions:
REMARK  status: ('A' for Active; 'I' for Inactive)
REMARK    1  A    between atoms: _1  and  _3
REMARK    2  A    between atoms: _3  and  _4
REMARK    3  A    between atoms: _7  and  _9
REMARK    4  A    between atoms: _9  and  _10
REMARK    5  A    between atoms: _9  and  _12
REMARK    6  A    between atoms: _12  and  _13
REMARK    7  A    between atoms: _16  and  _18
REMARK    8  A    between atoms: _18  and  _19
REMARK    9  A    between atoms: _18  and  _21
REMARK   10  A    between atoms: _21  and  _22
REMARK   11  A    between atoms: _25  and  _27
REMARK   12  A    between atoms: _27  and  _28
REMARK   13  A    between atoms: _27  and  _30
REMARK   14  A    between atoms: _30  and  _31
REMARK   15  A    between atoms: _31  and  _32
REMARK   16  A    between atoms: _37  and  _39
REMARK   17  A    between atoms: _39  and  _40
REMARK   18  A    between atoms: _39  and  _42
REMARK   19  A    between atoms: _44  and  _46
REMARK   20  A    between atoms: _46  and  _47
REMARK   21  A    between atoms: _46  and  _49
REMARK   22  A    between atoms: _49  and  _50
REMARK   23  A    between atoms: _50  and  _51
REMARK   24  A    between atoms: _54  and  _56
REMARK   25  A    between atoms: _56  and  _57
REMARK   26  A    between atoms: _60  and  _62
REMARK   27  A    between atoms: _62  and  _63
REMARK   28  A    between atoms: _62  and  _65
REMARK   29  A    between atoms: _65  and  _66
REMARK   30  A    between atoms: _69  and  _71
REMARK   31  A    between atoms: _71  and  _72
REMARK   32  A    between atoms: _74  and  _76
REMARK   33  A    between atoms: _76  and  _77
REMARK   34  A    between atoms: _76  and  _79
REMARK   35  A    between atoms: _79  and  _80
REMARK   36  A    between atoms: _85  and  _86
REMARK   37  A    between atoms: _88  and  _90
REMARK   38  A    between atoms: _90  and  _91
REMARK   39  A    between atoms: _90  and  _93
REMARK   40  A    between atoms: _93  and  _94
REMARK   41  A    between atoms: _100  and  _102
REMARK   42  A    between atoms: _102  and  _103
REMARK   43  A    between atoms: _102  and  _105
REMARK   44  A    between atoms: _105  and  _106
REMARK   45  A    between atoms: _111  and  _113
REMARK   46  A    between atoms: _113  and  _114
REMARK   47  A    between atoms: _113  and  _116
REMARK   48  A    between atoms: _119  and  _121
REMARK   49  A    between atoms: _121  and  _122
REMARK   50  A    between atoms: _124  and  _126
REMARK   51  A    between atoms: _126  and  _127
REMARK   52  A    between atoms: _130  and  _132
REMARK   53  A    between atoms: _132  and  _133
REMARK   54  A    between atoms: _132  and  _135
REMARK   55  A    between atoms: _135  and  _136
REMARK   56  A    between atoms: _136  and  _137
REMARK   57  A    between atoms: _139  and  _141
REMARK   58  A    between atoms: _141  and  _142
REMARK   59  A    between atoms: _141  and  _144
REMARK   60  A    between atoms: _144  and  _145
REMARK   61  A    between atoms: _145  and  _146
REMARK   62  A    between atoms: _149  and  _151
REMARK   63  A    between atoms: _151  and  _152
REMARK   64  A    between atoms: _151  and  _154
REMARK   65  A    between atoms: _154  and  _155
REMARK   66  A    between atoms: _160  and  _162
REMARK   67  A    between atoms: _162  and  _163
REMARK   68  A    between atoms: _162  and  _165
REMARK   69  A    between atoms: _165  and  _166
REMARK   70  A    between atoms: _169  and  _171
REMARK   71  A    between atoms: _171  and  _172
REMARK   72  A    between atoms: _171  and  _174
REMARK   73  A    between atoms: _174  and  _175
REMARK   74  A    between atoms: _181  and  _183
REMARK   75  A    between atoms: _183  and  _184
REMARK   76  A    between atoms: _183  and  _186
REMARK   77  A    between atoms: _186  and  _187
REMARK   78  A    between atoms: _192  and  _194
REMARK   79  A    between atoms: _194  and  _195
REMARK   80  A    between atoms: _194  and  _197
REMARK   81  A    between atoms: _197  and  _198
REMARK   82  A    between atoms: _203  and  _205
REMARK   83  A    between atoms: _205  and  _206
REMARK   84  A    between atoms: _205  and  _208
REMARK   85  A    between atoms: _208  and  _209
REMARK   86  A    between atoms: _211  and  _213
REMARK   87  A    between atoms: _213  and  _214
REMARK   88  A    between atoms: _213  and  _216
REMARK   89  A    between atoms: _216  and  _217
REMARK   90  A    between atoms: _217  and  _218
REMARK   91  A    between atoms: _218  and  _219
REMARK   92  A    between atoms: _228  and  _230
REMARK   93  A    between atoms: _230  and  _231
REMARK   94  A    between atoms: _230  and  _233
REMARK   95  A    between atoms: _233  and  _234
REMARK   96  A    between atoms: _237  and  _239
REMARK   97  A    between atoms: _239  and  _240
REMARK   98  A    between atoms: _239  and  _242
REMARK   99  A    between atoms: _245  and  _247
REMARK  100  A    between atoms: _247  and  _248
REMARK  101  A    between atoms: _247  and  _250
REMARK  102  A    between atoms: _253  and  _255
REMARK  103  A    between atoms: _255  and  _256
REMARK  104  A    between atoms: _258  and  _260
REMARK  105  A    between atoms: _260  and  _261
REMARK  106  A    between atoms: _260  and  _263
REMARK  107  A    between atoms: _263  and  _264
REMARK  108  A    between atoms: _268  and  ZN_679
REMARK  109  A    between atoms: _269  and  _271
REMARK  110  A    between atoms: _271  and  _272
REMARK  111  A    between atoms: _271  and  _274
REMARK  112  A    between atoms: _274  and  _275
REMARK  113  A    between atoms: _275  and  _276
REMARK  114  A    between atoms: _279  and  _281
REMARK  115  A    between atoms: _281  and  _282
REMARK  116  A    between atoms: _281  and  _284
REMARK  117  A    between atoms: _284  and  _285
REMARK  118  A    between atoms: _290  and  _291
REMARK  119  A    between atoms: _293  and  _295
REMARK  120  A    between atoms: _295  and  _296
REMARK  121  A    between atoms: _295  and  _298
REMARK  122  A    between atoms: _298  and  _299
REMARK  123  A    between atoms: _303  and  ZN_679
REMARK  124  A    between atoms: _304  and  _306
REMARK  125  A    between atoms: _306  and  _307
REMARK  126  A    between atoms: _306  and  _309
REMARK  127  A    between atoms: _309  and  _310
REMARK  128  A    between atoms: _320  and  _322
REMARK  129  A    between atoms: _322  and  _323
REMARK  130  A    between atoms: _322  and  _325
REMARK  131  A    between atoms: _325  and  _326
REMARK  132  A    between atoms: _329  and  _331
REMARK  133  A    between atoms: _331  and  _332
REMARK  134  A    between atoms: _331  and  _334
REMARK  135  A    between atoms: _334  and  _335
REMARK  136  A    between atoms: _335  and  _336
REMARK  137  A    between atoms: _336  and  _337
REMARK  138  A    between atoms: _337  and  _338
REMARK  139  A    between atoms: _342  and  _344
REMARK  140  A    between atoms: _344  and  _345
REMARK  141  A    between atoms: _344  and  _347
REMARK  142  A    between atoms: _347  and  _348
REMARK  143  A    between atoms: _348  and  _349
REMARK  144  A    between atoms: _349  and  _350
REMARK  145  A    between atoms: _350  and  ZN_679
REMARK  146  A    between atoms: _352  and  _354
REMARK  147  A    between atoms: _354  and  _355
REMARK  148  A    between atoms: _354  and  _357
REMARK  149  A    between atoms: _357  and  _358
REMARK  150  A    between atoms: _361  and  _363
REMARK  151  A    between atoms: _363  and  _364
REMARK  152  A    between atoms: _363  and  _366
REMARK  153  A    between atoms: _369  and  _371
REMARK  154  A    between atoms: _371  and  _372
REMARK  155  A    between atoms: _371  and  _374
REMARK  156  A    between atoms: _374  and  _375
REMARK  157  A    between atoms: _375  and  _376
REMARK  158  A    between atoms: _379  and  _381
REMARK  159  A    between atoms: _381  and  _382
REMARK  160  A    between atoms: _381  and  _384
REMARK  161  A    between atoms: _384  and  _385
REMARK  162  A    between atoms: _385  and  _386
REMARK  163  A    between atoms: _389  and  _391
REMARK  164  A    between atoms: _391  and  _392
REMARK  165  A    between atoms: _391  and  _394
REMARK  166  A    between atoms: _394  and  _395
REMARK  167  A    between atoms: _398  and  _400
REMARK  168  A    between atoms: _400  and  _401
REMARK  169  A    between atoms: _400  and  _403
REMARK  170  A    between atoms: _403  and  _404
REMARK  171  A    between atoms: _409  and  _411
REMARK  172  A    between atoms: _411  and  _412
REMARK  173  A    between atoms: _411  and  _414
REMARK  174  A    between atoms: _414  and  _415
REMARK  175  A    between atoms: _417  and  _419
REMARK  176  A    between atoms: _419  and  _420
REMARK  177  A    between atoms: _419  and  _422
REMARK  178  A    between atoms: _422  and  _423
REMARK  179  A    between atoms: _423  and  _424
REMARK  180  A    between atoms: _426  and  _428
REMARK  181  A    between atoms: _428  and  _429
REMARK  182  A    between atoms: _432  and  _434
REMARK  183  A    between atoms: _434  and  _435
REMARK  184  A    between atoms: _434  and  _437
REMARK  185  A    between atoms: _437  and  _438
REMARK  186  A    between atoms: _443  and  _445
REMARK  187  A    between atoms: _445  and  _446
REMARK  188  A    between atoms: _445  and  _448
REMARK  189  A    between atoms: _448  and  _449
REMARK  190  A    between atoms: _455  and  _457
REMARK  191  A    between atoms: _457  and  _458
REMARK  192  A    between atoms: _457  and  _460
REMARK  193  A    between atoms: _460  and  _461
REMARK  194  A    between atoms: _466  and  _467
REMARK  195  A    between atoms: _469  and  _471
REMARK  196  A    between atoms: _471  and  _472
REMARK  197  A    between atoms: _471  and  _474
REMARK  198  A    between atoms: _474  and  _475
REMARK  199  A    between atoms: _478  and  _480
REMARK  200  A    between atoms: _480  and  _481
REMARK  201  A    between atoms: _480  and  _483
REMARK  202  A    between atoms: _483  and  _484
REMARK  203  A    between atoms: _487  and  _489
REMARK  204  A    between atoms: _489  and  _490
REMARK  205  A    between atoms: _489  and  _492
REMARK  206  A    between atoms: _492  and  _493
REMARK  207  A    between atoms: _496  and  _498
REMARK  208  A    between atoms: _498  and  _499
REMARK  209  A    between atoms: _498  and  _501
REMARK  210  A    between atoms: _501  and  _502
REMARK  211  A    between atoms: _507  and  _508
REMARK  212  A    between atoms: _510  and  _512
REMARK  213  A    between atoms: _512  and  _513
REMARK  214  A    between atoms: _512  and  _515
REMARK  215  A    between atoms: _515  and  _516
REMARK  216  A    between atoms: _519  and  _521
REMARK  217  A    between atoms: _521  and  _522
REMARK  218  A    between atoms: _521  and  _524
REMARK  219  A    between atoms: _524  and  _525
REMARK  220  A    between atoms: _525  and  _526
REMARK  221  A    between atoms: _526  and  _527
REMARK  222  A    between atoms: _536  and  _538
REMARK  223  A    between atoms: _538  and  _539
REMARK  224  A    between atoms: _538  and  _541
REMARK  225  A    between atoms: _541  and  _542
REMARK  226  A    between atoms: _548  and  _549
REMARK  227  A    between atoms: _554  and  _556
REMARK  228  A    between atoms: _556  and  _557
REMARK  229  A    between atoms: _556  and  _559
REMARK  230  A    between atoms: _559  and  _560
REMARK  231  A    between atoms: _560  and  _561
REMARK  232  A    between atoms: _563  and  _565
REMARK  233  A    between atoms: _565  and  _566
REMARK  234  A    between atoms: _565  and  _568
REMARK  235  A    between atoms: _571  and  _573
REMARK  236  A    between atoms: _573  and  _574
REMARK  237  A    between atoms: _577  and  _579
REMARK  238  A    between atoms: _579  and  _580
REMARK  239  A    between atoms: _579  and  _582
REMARK  240  A    between atoms: _582  and  _583
REMARK  241  A    between atoms: _586  and  _588
REMARK  242  A    between atoms: _588  and  _589
REMARK  243  A    between atoms: _588  and  _591
REMARK  244  A    between atoms: _591  and  _592
REMARK  245  A    between atoms: _592  and  _593
REMARK  246  A    between atoms: _598  and  _600
REMARK  247  A    between atoms: _600  and  _601
REMARK  248  A    between atoms: _600  and  _603
REMARK  249  A    between atoms: _603  and  _604
REMARK  250  A    between atoms: _607  and  _609
REMARK  251  A    between atoms: _609  and  _610
REMARK  252  A    between atoms: _609  and  _612
REMARK  253  A    between atoms: _614  and  _616
REMARK  254  A    between atoms: _616  and  _617
REMARK  255  A    between atoms: _616  and  _619
REMARK  256  A    between atoms: _619  and  _620
REMARK  257  A    between atoms: _620  and  _621
REMARK  258  A    between atoms: _624  and  _626
REMARK  259  A    between atoms: _626  and  _627
REMARK  260  A    between atoms: _626  and  _629
REMARK  261  A    between atoms: _629  and  _630
REMARK  262  A    between atoms: _630  and  _631
REMARK  263  A    between atoms: _631  and  _632
REMARK  264  A    between atoms: _632  and  _633
REMARK  265  A    between atoms: _637  and  _639
REMARK  266  A    between atoms: _639  and  _640
REMARK  267  A    between atoms: _639  and  _642
REMARK  268  A    between atoms: _642  and  _643
REMARK  269  A    between atoms: _648  and  _650
REMARK  270  A    between atoms: _650  and  _651
REMARK  271  A    between atoms: _650  and  _653
REMARK  272  A    between atoms: _653  and  _654
REMARK  273  A    between atoms: _659  and  _660
REMARK  274  A    between atoms: _662  and  _664
REMARK  275  A    between atoms: _664  and  _665
REMARK  276  A    between atoms: _664  and  _667
REMARK  277  A    between atoms: _667  and  _668
REMARK  278  A    between atoms: _668  and  _669
REMARK  279  A    between atoms: _669  and  _670
REMARK                            x       y       z     vdW  Elec       q    Type
REMARK                         _______ _______ _______ _____ _____    ______ ____
ROOT
ATOM      1  C   UNK A   5      15.127  12.180   4.033  0.00  0.00    +0.000 C 
ENDROOT
BRANCH   1   2
ATOM      2  C   UNK A   5      14.368  13.400   4.589  0.00  0.00    +0.000 C 
ATOM      3  N   GLU A   6      15.082  14.318   5.258  0.00  0.00    +0.000 N 
ATOM      4  H   GLU A   6      16.110  14.195   5.358  0.00  0.00    +0.000 HD
ATOM      5  O   UNK A   5      13.139  13.501   4.408  0.00  0.00    +0.000 OA
BRANCH   3   6
ATOM      6  CA  GLU A   6      14.428  15.501   5.854  0.00  0.00    +0.000 C 
BRANCH   6   7
ATOM      7  C   GLU A   6      13.790  16.383   4.792  0.00  0.00    +0.000 C 
ATOM      8  O   GLU A   6      12.700  16.907   5.023  0.00  0.00    +0.000 OA
ATOM      9  N   TYR A   7      14.450  16.535   3.622  0.00  0.00    +0.000 N 
ATOM     10  H   TYR A   7      15.388  16.103   3.500  0.00  0.00    +0.000 HD
BRANCH   9  11
ATOM     11  CA  TYR A   7      13.854  17.306   2.521  0.00  0.00    +0.000 C 
BRANCH  11  12
ATOM     12  C   TYR A   7      12.535  16.648   2.065  0.00  0.00    +0.000 C 
ATOM     13  O   TYR A   7      11.552  17.354   1.860  0.00  0.00    +0.000 OA
ENDBRANCH  11  12
BRANCH  11  14
ATOM     14  CB  TYR A   7      14.798  17.468   1.305  0.00  0.00    +0.000 C 
BRANCH  14  15
ATOM     15  CG  TYR A   7      14.104  18.280   0.228  0.00  0.00    +0.000 A 
ATOM     16  CD2 TYR A   7      13.891  19.647   0.391  0.00  0.00    +0.000 A 
ATOM     17  CE2 TYR A   7      13.129  20.374  -0.518  0.00  0.00    +0.000 A 
ATOM     18  CZ  TYR A   7      12.582  19.738  -1.620  0.00  0.00    +0.000 A 
ATOM     19  CE1 TYR A   7      12.782  18.380  -1.808  0.00  0.00    +0.000 A 
ATOM     20  CD1 TYR A   7      13.522  17.657  -0.876  0.00  0.00    +0.000 A 
BRANCH  18  21
ATOM     21  OH  TYR A   7      11.864  20.468  -2.532  0.00  0.00    +0.000 OA
ATOM     22  HH  TYR A   7      12.306  20.415  -3.416  0.00  0.00    +0.000 HD
ENDBRANCH  18  21
ENDBRANCH  14  15
ENDBRANCH  11  14
ENDBRANCH   9  11
ENDBRANCH   6   7
BRANCH   6  23
ATOM     23  CB  GLU A   6      15.356  16.311   6.777  0.00  0.00    +0.000 C 
BRANCH  23  24
ATOM     24  CG  GLU A   6      16.088  15.489   7.850  0.00  0.00    +0.000 C 
BRANCH  24  25
ATOM     25  CD  GLU A   6      15.371  14.381   8.608  0.00  0.00    +0.000 C 
ATOM     26  OE2 GLU A   6      16.073  13.428   9.012  0.00  0.00    +0.000 OA
ATOM     27  OE1 GLU A   6      14.127  14.437   8.775  0.00  0.00    +0.000 OA
ENDBRANCH  24  25
ENDBRANCH  23  24
ENDBRANCH   6  23
ENDBRANCH   3   6
ENDBRANCH   1   2
BRANCH   1  29
ATOM     28  C   GLY A   4      16.080  13.438   2.118  0.00  0.00    +0.000 C 
ATOM     29  N   UNK A   5      16.220  12.586   3.143  0.00  0.00    +0.000 N 
ATOM     30  H   UNK A   5      17.164  12.187   3.319  0.00  0.00    +0.000 HD
ATOM     31  O   GLY A   4      15.015  14.007   1.850  0.00  0.00    +0.000 OA
BRANCH  28  32
ATOM     32  CA  GLY A   4      17.323  13.721   1.296  0.00  0.00    +0.000 C 
BRANCH  32  35
ATOM     33  C   VAL A   3      18.354  15.227   2.920  0.00  0.00    +0.000 C 
ATOM     34  O   VAL A   3      17.325  15.879   3.050  0.00  0.00    +0.000 OA
ATOM     35  N   GLY A   4      18.448  14.173   2.108  0.00  0.00    +0.000 N 
ATOM     36  H   GLY A   4      19.350  13.658   2.052  0.00  0.00    +0.000 HD
BRANCH  33  37
ATOM     37  CA  VAL A   3      19.585  15.558   3.772  0.00  0.00    +0.000 C 
BRANCH  37  40
ATOM     38  C   UNK A   2      19.206  13.593   5.232  0.00  0.00    +0.000 C 
ATOM     39  O   UNK A   2      18.038  13.949   5.517  0.00  0.00    +0.000 OA
ATOM     40  N   VAL A   3      20.025  14.298   4.410  0.00  0.00    +0.000 N 
ATOM     41  H   VAL A   3      20.985  13.944   4.224  0.00  0.00    +0.000 HD
BRANCH  38  42
ATOM     42  C   UNK A   2      19.736  12.249   5.739  0.00  0.00    +0.000 C 
BRANCH  42  44
ATOM     43  C   UNK A   1      19.664  10.872   3.692  0.00  0.00    +0.000 C 
ATOM     44  N   UNK A   2      20.375  11.466   4.662  0.00  0.00    +0.000 N 
ATOM     45  H   UNK A   2      21.411  11.372   4.655  0.00  0.00    +0.000 HD
ATOM     46  O   UNK A   1      18.447  10.918   3.622  0.00  0.00    +0.000 OA
BRANCH  43  47
ATOM     47  C   UNK A   1      20.402  10.025   2.678  0.00  0.00    +0.000 C 
BRANCH  47  48
ATOM     48  N   UNK A   1      21.664  10.633   2.236  0.00  0.00    +0.000 NA
ATOM     49  H   UNK A   1      22.564  10.192   2.513  0.00  0.00    +0.000 HD
ENDBRANCH  47  48
BRANCH  47  50
ATOM     50  C   UNK A   1      20.571   8.569   3.183  0.00  0.00    +0.000 C 
ATOM     51  C   UNK A   1      21.223   7.662   2.183  0.00  0.00    +0.000 C 
BRANCH  50  52
ATOM     52  O   UNK A   1      21.318   8.554   4.375  0.00  0.00    +0.000 OA
ATOM     53  H   UNK A   1      22.212   8.946   4.208  0.00  0.00    +0.000 HD
ENDBRANCH  50  52
ENDBRANCH  47  50
ENDBRANCH  43  47
ENDBRANCH  42  44
BRANCH  42  54
ATOM     54  C   UNK A   2      20.610  12.360   7.006  0.00  0.00    +0.000 C 
ATOM     55  C   UNK A   2      19.883  13.174   8.071  0.00  0.00    +0.000 C 
ATOM     56  C   UNK A   2      20.956  10.953   7.551  0.00  0.00    +0.000 C 
ENDBRANCH  42  54
ENDBRANCH  38  42
ENDBRANCH  37  40
BRANCH  37  57
ATOM     57  CB  VAL A   3      20.705  16.251   2.972  0.00  0.00    +0.000 C 
ATOM     58  CG2 VAL A   3      21.797  16.748   3.914  0.00  0.00    +0.000 C 
ATOM     59  CG1 VAL A   3      20.158  17.424   2.153  0.00  0.00    +0.000 C 
ENDBRANCH  37  57
ENDBRANCH  33  37
ENDBRANCH  32  35
ENDBRANCH  28  32
ENDBRANCH   1  29
BRANCH   1  60
ATOM     60  C   UNK A   5      15.677  11.316   5.190  0.00  0.00    +0.000 C 
BRANCH  60  61
ATOM     61  C   UNK A   5      14.635  10.802   6.131  0.00  0.00    +0.000 A 
ATOM     62  C   UNK A   5      13.954  11.451   7.111  0.00  0.00    +0.000 A 
ATOM     63  N   UNK A   5      13.110  10.524   7.683  0.00  0.00    +0.000 N 
ATOM     64  C   UNK A   5      13.303   9.376   7.045  0.00  0.00    +0.000 A 
ATOM     65  N   UNK A   5      14.232   9.488   6.103  0.00  0.00    +0.000 NA
BRANCH  63  66
ATOM     66 ZN   UNK A   2      11.880  11.096   9.126  0.00  0.00    +0.000 Zn
BRANCH  66  67
ATOM     67  N   UNK A   2      10.627  12.275   8.047  0.00  0.00    +0.000 N 
ATOM     68  C   UNK A   2       9.359  12.093   7.663  0.00  0.00    +0.000 A 
ATOM     69  N   UNK A   2       8.936  13.094   6.902  0.00  0.00    +0.000 NA
ATOM     70  C   UNK A   2      10.018  13.958   6.789  0.00  0.00    +0.000 A 
ATOM     71  C   UNK A   2      11.042  13.474   7.529  0.00  0.00    +0.000 A 
BRANCH  70  72
ATOM     72  C   UNK A   2       9.914  15.260   6.057  0.00  0.00    +0.000 C 
BRANCH  72  73
ATOM     73  C   UNK A   2       9.334  15.174   4.637  0.00  0.00    +0.000 C 
BRANCH  73  74
ATOM     74  C   UNK A   2       8.562  16.459   4.375  0.00  0.00    +0.000 C 
ATOM     75  O   UNK A   1       7.441  16.584   4.864  0.00  0.00    +0.000 OA
ENDBRANCH  73  74
BRANCH  73  76
ATOM     76  N   UNK A   2      10.407  14.968   3.655  0.00  0.00    +0.000 NA
ATOM     77  H   UNK A   1      11.399  15.014   3.963  0.00  0.00    +0.000 HD
ENDBRANCH  73  76
ENDBRANCH  72  73
ENDBRANCH  70  72
ENDBRANCH  66  67
BRANCH  66  78
ATOM     78  O   UNK A   2      10.861   9.389   9.512  0.00  0.00    +0.000 OA
BRANCH  78  79
ATOM     79  C   UNK A   2       9.963   9.608  10.358  0.00  0.00    +0.000 C 
ATOM     80  O   UNK A   2       9.829  10.710  10.927  0.00  0.00    +0.000 OA
BRANCH  79  81
ATOM     81  C   UNK A   2       9.039   8.478  10.792  0.00  0.00    +0.000 C 
BRANCH  81  82
ATOM     82  C   UNK A   2       8.914   7.289   9.851  0.00  0.00    +0.000 C 
BRANCH  82  83
ATOM     83  C   UNK A   2       8.517   7.708   8.439  0.00  0.00    +0.000 C 
BRANCH  83  84
ATOM     84  N   UNK A   2       7.176   8.308   8.392  0.00  0.00    +0.000 N 
ATOM     85  H   UNK A   2       6.465   8.055   9.108  0.00  0.00    +0.000 HD
ATOM     86  C   UNK A   1       6.872   9.185   7.419  0.00  0.00    +0.000 C 
ATOM     87  O   UNK A   1       7.651   9.469   6.530  0.00  0.00    +0.000 OA
BRANCH  86  88
ATOM     88  C   UNK A   1       5.491   9.833   7.418  0.00  0.00    +0.000 C 
BRANCH  88  89
ATOM     89  N   UNK A   1       4.437   8.879   7.767  0.00  0.00    +0.000 NA
ATOM     90  H   UNK A   1       4.188   8.705   8.762  0.00  0.00    +0.000 HD
ENDBRANCH  88  89
BRANCH  88  91
ATOM     91  C   UNK A   1       5.454  11.162   8.200  0.00  0.00    +0.000 C 
BRANCH  91  92
ATOM     92  C   UNK A   1       6.124  11.175   9.578  0.00  0.00    +0.000 C 
BRANCH  92  93
ATOM     93  C   UNK A   1       6.120  12.593  10.175  0.00  0.00    +0.000 C 
BRANCH  93  94
ATOM     94  C   UNK A   1       6.594  12.629  11.602  0.00  0.00    +0.000 C 
BRANCH  94  95
ATOM     95  N   UNK A   1       8.079  12.693  11.679  0.00  0.00    +0.000 N 
ATOM     96  H   UNK A   1       8.373  12.717  12.676  0.00  0.00    +0.000 HD
ATOM     97  H   UNK A   1       8.485  11.855  11.217  0.00  0.00    +0.000 HD
ATOM     98  H   UNK A   1       8.413  13.552  11.198  0.00  0.00    +0.000 HD
ENDBRANCH  94  95
ENDBRANCH  93  94
ENDBRANCH  92  93
ENDBRANCH  91  92
ENDBRANCH  88  91
ENDBRANCH  86  88
ENDBRANCH  83  84
BRANCH  83  99
ATOM     99  C   UNK A   2       8.794   6.634   7.396  0.00  0.00    +0.000 C 
ATOM    100  O   UNK A   2       9.831   6.698   6.728  0.00  0.00    +0.000 OA
ENDBRANCH  83  99
ENDBRANCH  82  83
ENDBRANCH  81  82
ENDBRANCH  79  81
ENDBRANCH  78  79
ENDBRANCH  66  78
ENDBRANCH  63  66
ENDBRANCH  60  61
ENDBRANCH   1  60
TORSDOF 46
REMARK  Name = ../refined-set-2016/3t8v/3t8v_pocket.pdb
REMARK  279 active torsions:
REMARK  status: ('A' for Active; 'I' for Inactive)
REMARK    1  A    between atoms: _1  and  _3
REMARK    2  A    between atoms: _3  and  _4
REMARK    3  A    between atoms: _7  and  _9
REMARK    4  A    between atoms: _9  and  _10
REMARK    5  A    between atoms: _9  and  _12
REMARK    6  A    between atoms: _12  and  _13
REMARK    7  A    between atoms: _16  and  _18
REMARK    8  A    between atoms: _18  and  _19
REMARK    9  A    between atoms: _18  and  _21
REMARK   10  A    between atoms: _21  and  _22
REMARK   11  A    between atoms: _25  and  _27
REMARK   12  A    between atoms: _27  and  _28
REMARK   13  A    between atoms: _27  and  _30
REMARK   14  A    between atoms: _30  and  _31
REMARK   15  A    between atoms: _31  and  _32
REMARK   16  A    between atoms: _37  and  _39
REMARK   17  A    between atoms: _39  and  _40
REMARK   18  A    between atoms: _39  and  _42
REMARK   19  A    between atoms: _44  and  _46
REMARK   20  A    between atoms: _46  and  _47
REMARK   21  A    between atoms: _46  and  _49
REMARK   22  A    between atoms: _49  and  _50
REMARK   23  A    between atoms: _50  and  _51
REMARK   24  A    between atoms: _54  and  _56
REMARK   25  A    between atoms: _56  and  _57
REMARK   26  A    between atoms: _60  and  _62
REMARK   27  A    between atoms: _62  and  _63
REMARK   28  A    between atoms: _62  and  _65
REMARK   29  A    between atoms: _65  and  _66
REMARK   30  A    between atoms: _69  and  _71
REMARK   31  A    between atoms: _71  and  _72
REMARK   32  A    between atoms: _74  and  _76
REMARK   33  A    between atoms: _76  and  _77
REMARK   34  A    between atoms: _76  and  _79
REMARK   35  A    between atoms: _79  and  _80
REMARK   36  A    between atoms: _85  and  _86
REMARK   37  A    between atoms: _88  and  _90
REMARK   38  A    between atoms: _90  and  _91
REMARK   39  A    between atoms: _90  and  _93
REMARK   40  A    between atoms: _93  and  _94
REMARK   41  A    between atoms: _100  and  _102
REMARK   42  A    between atoms: _102  and  _103
REMARK   43  A    between atoms: _102  and  _105
REMARK   44  A    between atoms: _105  and  _106
REMARK   45  A    between atoms: _111  and  _113
REMARK   46  A    between atoms: _113  and  _114
REMARK   47  A    between atoms: _113  and  _116
REMARK   48  A    between atoms: _119  and  _121
REMARK   49  A    between atoms: _121  and  _122
REMARK   50  A    between atoms: _124  and  _126
REMARK   51  A    between atoms: _126  and  _127
REMARK   52  A    between atoms: _130  and  _132
REMARK   53  A    between atoms: _132  and  _133
REMARK   54  A    between atoms: _132  and  _135
REMARK   55  A    between atoms: _135  and  _136
REMARK   56  A    between atoms: _136  and  _137
REMARK   57  A    between atoms: _139  and  _141
REMARK   58  A    between atoms: _141  and  _142
REMARK   59  A    between atoms: _141  and  _144
REMARK   60  A    between atoms: _144  and  _145
REMARK   61  A    between atoms: _145  and  _146
REMARK   62  A    between atoms: _149  and  _151
REMARK   63  A    between atoms: _151  and  _152
REMARK   64  A    between atoms: _151  and  _154
REMARK   65  A    between atoms: _154  and  _155
REMARK   66  A    between atoms: _160  and  _162
REMARK   67  A    between atoms: _162  and  _163
REMARK   68  A    between atoms: _162  and  _165
REMARK   69  A    between atoms: _165  and  _166
REMARK   70  A    between atoms: _169  and  _171
REMARK   71  A    between atoms: _171  and  _172
REMARK   72  A    between atoms: _171  and  _174
REMARK   73  A    between atoms: _174  and  _175
REMARK   74  A    between atoms: _181  and  _183
REMARK   75  A    between atoms: _183  and  _184
REMARK   76  A    between atoms: _183  and  _186
REMARK   77  A    between atoms: _186  and  _187
REMARK   78  A    between atoms: _192  and  _194
REMARK   79  A    between atoms: _194  and  _195
REMARK   80  A    between atoms: _194  and  _197
REMARK   81  A    between atoms: _197  and  _198
REMARK   82  A    between atoms: _203  and  _205
REMARK   83  A    between atoms: _205  and  _206
REMARK   84  A    between atoms: _205  and  _208
REMARK   85  A    between atoms: _208  and  _209
REMARK   86  A    between atoms: _211  and  _213
REMARK   87  A    between atoms: _213  and  _214
REMARK   88  A    between atoms: _213  and  _216
REMARK   89  A    between atoms: _216  and  _217
REMARK   90  A    between atoms: _217  and  _218
REMARK   91  A    between atoms: _218  and  _219
REMARK   92  A    between atoms: _228  and  _230
REMARK   93  A    between atoms: _230  and  _231
REMARK   94  A    between atoms: _230  and  _233
REMARK   95  A    between atoms: _233  and  _234
REMARK   96  A    between atoms: _237  and  _239
REMARK   97  A    between atoms: _239  and  _240
REMARK   98  A    between atoms: _239  and  _242
REMARK   99  A    between atoms: _245  and  _247
REMARK  100  A    between atoms: _247  and  _248
REMARK  101  A    between atoms: _247  and  _250
REMARK  102  A    between atoms: _253  and  _255
REMARK  103  A    between atoms: _255  and  _256
REMARK  104  A    between atoms: _258  and  _260
REMARK  105  A    between atoms: _260  and  _261
REMARK  106  A    between atoms: _260  and  _263
REMARK  107  A    between atoms: _263  and  _264
REMARK  108  A    between atoms: _268  and  ZN_679
REMARK  109  A    between atoms: _269  and  _271
REMARK  110  A    between atoms: _271  and  _272
REMARK  111  A    between atoms: _271  and  _274
REMARK  112  A    between atoms: _274  and  _275
REMARK  113  A    between atoms: _275  and  _276
REMARK  114  A    between atoms: _279  and  _281
REMARK  115  A    between atoms: _281  and  _282
REMARK  116  A    between atoms: _281  and  _284
REMARK  117  A    between atoms: _284  and  _285
REMARK  118  A    between atoms: _290  and  _291
REMARK  119  A    between atoms: _293  and  _295
REMARK  120  A    between atoms: _295  and  _296
REMARK  121  A    between atoms: _295  and  _298
REMARK  122  A    between atoms: _298  and  _299
REMARK  123  A    between atoms: _303  and  ZN_679
REMARK  124  A    between atoms: _304  and  _306
REMARK  125  A    between atoms: _306  and  _307
REMARK  126  A    between atoms: _306  and  _309
REMARK  127  A    between atoms: _309  and  _310
REMARK  128  A    between atoms: _320  and  _322
REMARK  129  A    between atoms: _322  and  _323
REMARK  130  A    between atoms: _322  and  _325
REMARK  131  A    between atoms: _325  and  _326
REMARK  132  A    between atoms: _329  and  _331
REMARK  133  A    between atoms: _331  and  _332
REMARK  134  A    between atoms: _331  and  _334
REMARK  135  A    between atoms: _334  and  _335
REMARK  136  A    between atoms: _335  and  _336
REMARK  137  A    between atoms: _336  and  _337
REMARK  138  A    between atoms: _337  and  _338
REMARK  139  A    between atoms: _342  and  _344
REMARK  140  A    between atoms: _344  and  _345
REMARK  141  A    between atoms: _344  and  _347
REMARK  142  A    between atoms: _347  and  _348
REMARK  143  A    between atoms: _348  and  _349
REMARK  144  A    between atoms: _349  and  _350
REMARK  145  A    between atoms: _350  and  ZN_679
REMARK  146  A    between atoms: _352  and  _354
REMARK  147  A    between atoms: _354  and  _355
REMARK  148  A    between atoms: _354  and  _357
REMARK  149  A    between atoms: _357  and  _358
REMARK  150  A    between atoms: _361  and  _363
REMARK  151  A    between atoms: _363  and  _364
REMARK  152  A    between atoms: _363  and  _366
REMARK  153  A    between atoms: _369  and  _371
REMARK  154  A    between atoms: _371  and  _372
REMARK  155  A    between atoms: _371  and  _374
REMARK  156  A    between atoms: _374  and  _375
REMARK  157  A    between atoms: _375  and  _376
REMARK  158  A    between atoms: _379  and  _381
REMARK  159  A    between atoms: _381  and  _382
REMARK  160  A    between atoms: _381  and  _384
REMARK  161  A    between atoms: _384  and  _385
REMARK  162  A    between atoms: _385  and  _386
REMARK  163  A    between atoms: _389  and  _391
REMARK  164  A    between atoms: _391  and  _392
REMARK  165  A    between atoms: _391  and  _394
REMARK  166  A    between atoms: _394  and  _395
REMARK  167  A    between atoms: _398  and  _400
REMARK  168  A    between atoms: _400  and  _401
REMARK  169  A    between atoms: _400  and  _403
REMARK  170  A    between atoms: _403  and  _404
REMARK  171  A    between atoms: _409  and  _411
REMARK  172  A    between atoms: _411  and  _412
REMARK  173  A    between atoms: _411  and  _414
REMARK  174  A    between atoms: _414  and  _415
REMARK  175  A    between atoms: _417  and  _419
REMARK  176  A    between atoms: _419  and  _420
REMARK  177  A    between atoms: _419  and  _422
REMARK  178  A    between atoms: _422  and  _423
REMARK  179  A    between atoms: _423  and  _424
REMARK  180  A    between atoms: _426  and  _428
REMARK  181  A    between atoms: _428  and  _429
REMARK  182  A    between atoms: _432  and  _434
REMARK  183  A    between atoms: _434  and  _435
REMARK  184  A    between atoms: _434  and  _437
REMARK  185  A    between atoms: _437  and  _438
REMARK  186  A    between atoms: _443  and  _445
REMARK  187  A    between atoms: _445  and  _446
REMARK  188  A    between atoms: _445  and  _448
REMARK  189  A    between atoms: _448  and  _449
REMARK  190  A    between atoms: _455  and  _457
REMARK  191  A    between atoms: _457  and  _458
REMARK  192  A    between atoms: _457  and  _460
REMARK  193  A    between atoms: _460  and  _461
REMARK  194  A    between atoms: _466  and  _467
REMARK  195  A    between atoms: _469  and  _471
REMARK  196  A    between atoms: _471  and  _472
REMARK  197  A    between atoms: _471  and  _474
REMARK  198  A    between atoms: _474  and  _475
REMARK  199  A    between atoms: _478  and  _480
REMARK  200  A    between atoms: _480  and  _481
REMARK  201  A    between atoms: _480  and  _483
REMARK  202  A    between atoms: _483  and  _484
REMARK  203  A    between atoms: _487  and  _489
REMARK  204  A    between atoms: _489  and  _490
REMARK  205  A    between atoms: _489  and  _492
REMARK  206  A    between atoms: _492  and  _493
REMARK  207  A    between atoms: _496  and  _498
REMARK  208  A    between atoms: _498  and  _499
REMARK  209  A    between atoms: _498  and  _501
REMARK  210  A    between atoms: _501  and  _502
REMARK  211  A    between atoms: _507  and  _508
REMARK  212  A    between atoms: _510  and  _512
REMARK  213  A    between atoms: _512  and  _513
REMARK  214  A    between atoms: _512  and  _515
REMARK  215  A    between atoms: _515  and  _516
REMARK  216  A    between atoms: _519  and  _521
REMARK  217  A    between atoms: _521  and  _522
REMARK  218  A    between atoms: _521  and  _524
REMARK  219  A    between atoms: _524  and  _525
REMARK  220  A    between atoms: _525  and  _526
REMARK  221  A    between atoms: _526  and  _527
REMARK  222  A    between atoms: _536  and  _538
REMARK  223  A    between atoms: _538  and  _539
REMARK  224  A    between atoms: _538  and  _541
REMARK  225  A    between atoms: _541  and  _542
REMARK  226  A    between atoms: _548  and  _549
REMARK  227  A    between atoms: _554  and  _556
REMARK  228  A    between atoms: _556  and  _557
REMARK  229  A    between atoms: _556  and  _559
REMARK  230  A    between atoms: _559  and  _560
REMARK  231  A    between atoms: _560  and  _561
REMARK  232  A    between atoms: _563  and  _565
REMARK  233  A    between atoms: _565  and  _566
REMARK  234  A    between atoms: _565  and  _568
REMARK  235  A    between atoms: _571  and  _573
REMARK  236  A    between atoms: _573  and  _574
REMARK  237  A    between atoms: _577  and  _579
REMARK  238  A    between atoms: _579  and  _580
REMARK  239  A    between atoms: _579  and  _582
REMARK  240  A    between atoms: _582  and  _583
REMARK  241  A    between atoms: _586  and  _588
REMARK  242  A    between atoms: _588  and  _589
REMARK  243  A    between atoms: _588  and  _591
REMARK  244  A    between atoms: _591  and  _592
REMARK  245  A    between atoms: _592  and  _593
REMARK  246  A    between atoms: _598  and  _600
REMARK  247  A    between atoms: _600  and  _601
REMARK  248  A    between atoms: _600  and  _603
REMARK  249  A    between atoms: _603  and  _604
REMARK  250  A    between atoms: _607  and  _609
REMARK  251  A    between atoms: _609  and  _610
REMARK  252  A    between atoms: _609  and  _612
REMARK  253  A    between atoms: _614  and  _616
REMARK  254  A    between atoms: _616  and  _617
REMARK  255  A    between atoms: _616  and  _619
REMARK  256  A    between atoms: _619  and  _620
REMARK  257  A    between atoms: _620  and  _621
REMARK  258  A    between atoms: _624  and  _626
REMARK  259  A    between atoms: _626  and  _627
REMARK  260  A    between atoms: _626  and  _629
REMARK  261  A    between atoms: _629  and  _630
REMARK  262  A    between atoms: _630  and  _631
REMARK  263  A    between atoms: _631  and  _632
REMARK  264  A    between atoms: _632  and  _633
REMARK  265  A    between atoms: _637  and  _639
REMARK  266  A    between atoms: _639  and  _640
REMARK  267  A    between atoms: _639  and  _642
REMARK  268  A    between atoms: _642  and  _643
REMARK  269  A    between atoms: _648  and  _650
REMARK  270  A    between atoms: _650  and  _651
REMARK  271  A    between atoms: _650  and  _653
REMARK  272  A    between atoms: _653  and  _654
REMARK  273  A    between atoms: _659  and  _660
REMARK  274  A    between atoms: _662  and  _664
REMARK  275  A    between atoms: _664  and  _665
REMARK  276  A    between atoms: _664  and  _667
REMARK  277  A    between atoms: _667  and  _668
REMARK  278  A    between atoms: _668  and  _669
REMARK  279  A    between atoms: _669  and  _670
REMARK                            x       y       z     vdW  Elec       q    Type
REMARK                         _______ _______ _______ _____ _____    ______ ____
ROOT
ATOM      1  CG  TRP A   1       2.486  10.928  18.066  0.00  0.00    -0.002 A 
ATOM      2  CD1 TRP A   1       2.071  11.786  19.047  0.00  0.00    +0.068 A 
ATOM      3  NE1 TRP A   1       2.711  13.000  18.912  0.00  0.00    -0.352 N 
ATOM      4  HE1 TRP A   1       2.617  13.807  19.561  0.00  0.00    +0.166 HD
ATOM      5  CE2 TRP A   1       3.493  12.971  17.781  0.00  0.00    +0.056 A 
ATOM      6  CZ2 TRP A   1       4.291  13.967  17.199  0.00  0.00    +0.017 A 
ATOM      7  CH2 TRP A   1       4.955  13.651  16.029  0.00  0.00    +0.001 A 
ATOM      8  CZ3 TRP A   1       4.864  12.369  15.453  0.00  0.00    +0.000 A 
ATOM      9  CE3 TRP A   1       4.083  11.378  16.036  0.00  0.00    +0.001 A 
ATOM     10  CD2 TRP A   1       3.361  11.683  17.212  0.00  0.00    +0.013 A 
ENDROOT
BRANCH   1  11
ATOM     11  CB  TRP A   1       2.037   9.514  17.851  0.00  0.00    +0.053 C 
BRANCH  11  12
ATOM     12  CA  TRP A   1       1.281   9.324  16.546  0.00  0.00    +0.137 C 
BRANCH  12  13
ATOM     13  N   TRP A   1       0.006  10.041  16.570  0.00  0.00    -0.239 NA
ATOM     14  H   TRP A   1      -0.380  10.348  17.486  0.00  0.00    +0.142 HD
ENDBRANCH  12  13
BRANCH  12  15
ATOM     15  C   TRP A   1       1.224   7.880  16.099  0.00  0.00    +0.224 C 
ATOM     16  O   TRP A   1       2.246   7.345  15.670  0.00  0.00    -0.287 OA
ENDBRANCH  12  15
ENDBRANCH  11  12
ENDBRANCH   1  11
TORSDOF 4
REMARK  Name = ../refined-set-2016/3t8v/3t8v_pocket.pdb
REMARK  279 active torsions:
REMARK  status: ('A' for Active; 'I' for Inactive)
REMARK    1  A    between atoms: _1  and  _3
REMARK    2  A    between atoms: _3  and  _4
REMARK    3  A    between atoms: _7  and  _9
REMARK    4  A    between atoms: _9  and  _10
REMARK    5  A    between atoms: _9  and  _12
REMARK    6  A    between atoms: _12  and  _13
REMARK    7  A    between atoms: _16  and  _18
REMARK    8  A    between atoms: _18  and  _19
REMARK    9  A    between atoms: _18  and  _21
REMARK   10  A    between atoms: _21  and  _22
REMARK   11  A    between atoms: _25  and  _27
REMARK   12  A    between atoms: _27  and  _28
REMARK   13  A    between atoms: _27  and  _30
REMARK   14  A    between atoms: _30  and  _31
REMARK   15  A    between atoms: _31  and  _32
REMARK   16  A    between atoms: _37  and  _39
REMARK   17  A    between atoms: _39  and  _40
REMARK   18  A    between atoms: _39  and  _42
REMARK   19  A    between atoms: _44  and  _46
REMARK   20  A    between atoms: _46  and  _47
REMARK   21  A    between atoms: _46  and  _49
REMARK   22  A    between atoms: _49  and  _50
REMARK   23  A    between atoms: _50  and  _51
REMARK   24  A    between atoms: _54  and  _56
REMARK   25  A    between atoms: _56  and  _57
REMARK   26  A    between atoms: _60  and  _62
REMARK   27  A    between atoms: _62  and  _63
REMARK   28  A    between atoms: _62  and  _65
REMARK   29  A    between atoms: _65  and  _66
REMARK   30  A    between atoms: _69  and  _71
REMARK   31  A    between atoms: _71  and  _72
REMARK   32  A    between atoms: _74  and  _76
REMARK   33  A    between atoms: _76  and  _77
REMARK   34  A    between atoms: _76  and  _79
REMARK   35  A    between atoms: _79  and  _80
REMARK   36  A    between atoms: _85  and  _86
REMARK   37  A    between atoms: _88  and  _90
REMARK   38  A    between atoms: _90  and  _91
REMARK   39  A    between atoms: _90  and  _93
REMARK   40  A    between atoms: _93  and  _94
REMARK   41  A    between atoms: _100  and  _102
REMARK   42  A    between atoms: _102  and  _103
REMARK   43  A    between atoms: _102  and  _105
REMARK   44  A    between atoms: _105  and  _106
REMARK   45  A    between atoms: _111  and  _113
REMARK   46  A    between atoms: _113  and  _114
REMARK   47  A    between atoms: _113  and  _116
REMARK   48  A    between atoms: _119  and  _121
REMARK   49  A    between atoms: _121  and  _122
REMARK   50  A    between atoms: _124  and  _126
REMARK   51  A    between atoms: _126  and  _127
REMARK   52  A    between atoms: _130  and  _132
REMARK   53  A    between atoms: _132  and  _133
REMARK   54  A    between atoms: _132  and  _135
REMARK   55  A    between atoms: _135  and  _136
REMARK   56  A    between atoms: _136  and  _137
REMARK   57  A    between atoms: _139  and  _141
REMARK   58  A    between atoms: _141  and  _142
REMARK   59  A    between atoms: _141  and  _144
REMARK   60  A    between atoms: _144  and  _145
REMARK   61  A    between atoms: _145  and  _146
REMARK   62  A    between atoms: _149  and  _151
REMARK   63  A    between atoms: _151  and  _152
REMARK   64  A    between atoms: _151  and  _154
REMARK   65  A    between atoms: _154  and  _155
REMARK   66  A    between atoms: _160  and  _162
REMARK   67  A    between atoms: _162  and  _163
REMARK   68  A    between atoms: _162  and  _165
REMARK   69  A    between atoms: _165  and  _166
REMARK   70  A    between atoms: _169  and  _171
REMARK   71  A    between atoms: _171  and  _172
REMARK   72  A    between atoms: _171  and  _174
REMARK   73  A    between atoms: _174  and  _175
REMARK   74  A    between atoms: _181  and  _183
REMARK   75  A    between atoms: _183  and  _184
REMARK   76  A    between atoms: _183  and  _186
REMARK   77  A    between atoms: _186  and  _187
REMARK   78  A    between atoms: _192  and  _194
REMARK   79  A    between atoms: _194  and  _195
REMARK   80  A    between atoms: _194  and  _197
REMARK   81  A    between atoms: _197  and  _198
REMARK   82  A    between atoms: _203  and  _205
REMARK   83  A    between atoms: _205  and  _206
REMARK   84  A    between atoms: _205  and  _208
REMARK   85  A    between atoms: _208  and  _209
REMARK   86  A    between atoms: _211  and  _213
REMARK   87  A    between atoms: _213  and  _214
REMARK   88  A    between atoms: _213  and  _216
REMARK   89  A    between atoms: _216  and  _217
REMARK   90  A    between atoms: _217  and  _218
REMARK   91  A    between atoms: _218  and  _219
REMARK   92  A    between atoms: _228  and  _230
REMARK   93  A    between atoms: _230  and  _231
REMARK   94  A    between atoms: _230  and  _233
REMARK   95  A    between atoms: _233  and  _234
REMARK   96  A    between atoms: _237  and  _239
REMARK   97  A    between atoms: _239  and  _240
REMARK   98  A    between atoms: _239  and  _242
REMARK   99  A    between atoms: _245  and  _247
REMARK  100  A    between atoms: _247  and  _248
REMARK  101  A    between atoms: _247  and  _250
REMARK  102  A    between atoms: _253  and  _255
REMARK  103  A    between atoms: _255  and  _256
REMARK  104  A    between atoms: _258  and  _260
REMARK  105  A    between atoms: _260  and  _261
REMARK  106  A    between atoms: _260  and  _263
REMARK  107  A    between atoms: _263  and  _264
REMARK  108  A    between atoms: _268  and  ZN_679
REMARK  109  A    between atoms: _269  and  _271
REMARK  110  A    between atoms: _271  and  _272
REMARK  111  A    between atoms: _271  and  _274
REMARK  112  A    between atoms: _274  and  _275
REMARK  113  A    between atoms: _275  and  _276
REMARK  114  A    between atoms: _279  and  _281
REMARK  115  A    between atoms: _281  and  _282
REMARK  116  A    between atoms: _281  and  _284
REMARK  117  A    between atoms: _284  and  _285
REMARK  118  A    between atoms: _290  and  _291
REMARK  119  A    between atoms: _293  and  _295
REMARK  120  A    between atoms: _295  and  _296
REMARK  121  A    between atoms: _295  and  _298
REMARK  122  A    between atoms: _298  and  _299
REMARK  123  A    between atoms: _303  and  ZN_679
REMARK  124  A    between atoms: _304  and  _306
REMARK  125  A    between atoms: _306  and  _307
REMARK  126  A    between atoms: _306  and  _309
REMARK  127  A    between atoms: _309  and  _310
REMARK  128  A    between atoms: _320  and  _322
REMARK  129  A    between atoms: _322  and  _323
REMARK  130  A    between atoms: _322  and  _325
REMARK  131  A    between atoms: _325  and  _326
REMARK  132  A    between atoms: _329  and  _331
REMARK  133  A    between atoms: _331  and  _332
REMARK  134  A    between atoms: _331  and  _334
REMARK  135  A    between atoms: _334  and  _335
REMARK  136  A    between atoms: _335  and  _336
REMARK  137  A    between atoms: _336  and  _337
REMARK  138  A    between atoms: _337  and  _338
REMARK  139  A    between atoms: _342  and  _344
REMARK  140  A    between atoms: _344  and  _345
REMARK  141  A    between atoms: _344  and  _347
REMARK  142  A    between atoms: _347  and  _348
REMARK  143  A    between atoms: _348  and  _349
REMARK  144  A    between atoms: _349  and  _350
REMARK  145  A    between atoms: _350  and  ZN_679
REMARK  146  A    between atoms: _352  and  _354
REMARK  147  A    between atoms: _354  and  _355
REMARK  148  A    between atoms: _354  and  _357
REMARK  149  A    between atoms: _357  and  _358
REMARK  150  A    between atoms: _361  and  _363
REMARK  151  A    between atoms: _363  and  _364
REMARK  152  A    between atoms: _363  and  _366
REMARK  153  A    between atoms: _369  and  _371
REMARK  154  A    between atoms: _371  and  _372
REMARK  155  A    between atoms: _371  and  _374
REMARK  156  A    between atoms: _374  and  _375
REMARK  157  A    between atoms: _375  and  _376
REMARK  158  A    between atoms: _379  and  _381
REMARK  159  A    between atoms: _381  and  _382
REMARK  160  A    between atoms: _381  and  _384
REMARK  161  A    between atoms: _384  and  _385
REMARK  162  A    between atoms: _385  and  _386
REMARK  163  A    between atoms: _389  and  _391
REMARK  164  A    between atoms: _391  and  _392
REMARK  165  A    between atoms: _391  and  _394
REMARK  166  A    between atoms: _394  and  _395
REMARK  167  A    between atoms: _398  and  _400
REMARK  168  A    between atoms: _400  and  _401
REMARK  169  A    between atoms: _400  and  _403
REMARK  170  A    between atoms: _403  and  _404
REMARK  171  A    between atoms: _409  and  _411
REMARK  172  A    between atoms: _411  and  _412
REMARK  173  A    between atoms: _411  and  _414
REMARK  174  A    between atoms: _414  and  _415
REMARK  175  A    between atoms: _417  and  _419
REMARK  176  A    between atoms: _419  and  _420
REMARK  177  A    between atoms: _419  and  _422
REMARK  178  A    between atoms: _422  and  _423
REMARK  179  A    between atoms: _423  and  _424
REMARK  180  A    between atoms: _426  and  _428
REMARK  181  A    between atoms: _428  and  _429
REMARK  182  A    between atoms: _432  and  _434
REMARK  183  A    between atoms: _434  and  _435
REMARK  184  A    between atoms: _434  and  _437
REMARK  185  A    between atoms: _437  and  _438
REMARK  186  A    between atoms: _443  and  _445
REMARK  187  A    between atoms: _445  and  _446
REMARK  188  A    between atoms: _445  and  _448
REMARK  189  A    between atoms: _448  and  _449
REMARK  190  A    between atoms: _455  and  _457
REMARK  191  A    between atoms: _457  and  _458
REMARK  192  A    between atoms: _457  and  _460
REMARK  193  A    between atoms: _460  and  _461
REMARK  194  A    between atoms: _466  and  _467
REMARK  195  A    between atoms: _469  and  _471
REMARK  196  A    between atoms: _471  and  _472
REMARK  197  A    between atoms: _471  and  _474
REMARK  198  A    between atoms: _474  and  _475
REMARK  199  A    between atoms: _478  and  _480
REMARK  200  A    between atoms: _480  and  _481
REMARK  201  A    between atoms: _480  and  _483
REMARK  202  A    between atoms: _483  and  _484
REMARK  203  A    between atoms: _487  and  _489
REMARK  204  A    between atoms: _489  and  _490
REMARK  205  A    between atoms: _489  and  _492
REMARK  206  A    between atoms: _492  and  _493
REMARK  207  A    between atoms: _496  and  _498
REMARK  208  A    between atoms: _498  and  _499
REMARK  209  A    between atoms: _498  and  _501
REMARK  210  A    between atoms: _501  and  _502
REMARK  211  A    between atoms: _507  and  _508
REMARK  212  A    between atoms: _510  and  _512
REMARK  213  A    between atoms: _512  and  _513
REMARK  214  A    between atoms: _512  and  _515
REMARK  215  A    between atoms: _515  and  _516
REMARK  216  A    between atoms: _519  and  _521
REMARK  217  A    between atoms: _521  and  _522
REMARK  218  A    between atoms: _521  and  _524
REMARK  219  A    between atoms: _524  and  _525
REMARK  220  A    between atoms: _525  and  _526
REMARK  221  A    between atoms: _526  and  _527
REMARK  222  A    between atoms: _536  and  _538
REMARK  223  A    between atoms: _538  and  _539
REMARK  224  A    between atoms: _538  and  _541
REMARK  225  A    between atoms: _541  and  _542
REMARK  226  A    between atoms: _548  and  _549
REMARK  227  A    between atoms: _554  and  _556
REMARK  228  A    between atoms: _556  and  _557
REMARK  229  A    between atoms: _556  and  _559
REMARK  230  A    between atoms: _559  and  _560
REMARK  231  A    between atoms: _560  and  _561
REMARK  232  A    between atoms: _563  and  _565
REMARK  233  A    between atoms: _565  and  _566
REMARK  234  A    between atoms: _565  and  _568
REMARK  235  A    between atoms: _571  and  _573
REMARK  236  A    between atoms: _573  and  _574
REMARK  237  A    between atoms: _577  and  _579
REMARK  238  A    between atoms: _579  and  _580
REMARK  239  A    between atoms: _579  and  _582
REMARK  240  A    between atoms: _582  and  _583
REMARK  241  A    between atoms: _586  and  _588
REMARK  242  A    between atoms: _588  and  _589
REMARK  243  A    between atoms: _588  and  _591
REMARK  244  A    between atoms: _591  and  _592
REMARK  245  A    between atoms: _592  and  _593
REMARK  246  A    between atoms: _598  and  _600
REMARK  247  A    between atoms: _600  and  _601
REMARK  248  A    between atoms: _600  and  _603
REMARK  249  A    between atoms: _603  and  _604
REMARK  250  A    between atoms: _607  and  _609
REMARK  251  A    between atoms: _609  and  _610
REMARK  252  A    between atoms: _609  and  _612
REMARK  253  A    between atoms: _614  and  _616
REMARK  254  A    between atoms: _616  and  _617
REMARK  255  A    between atoms: _616  and  _619
REMARK  256  A    between atoms: _619  and  _620
REMARK  257  A    between atoms: _620  and  _621
REMARK  258  A    between atoms: _624  and  _626
REMARK  259  A    between atoms: _626  and  _627
REMARK  260  A    between atoms: _626  and  _629
REMARK  261  A    between atoms: _629  and  _630
REMARK  262  A    between atoms: _630  and  _631
REMARK  263  A    between atoms: _631  and  _632
REMARK  264  A    between atoms: _632  and  _633
REMARK  265  A    between atoms: _637  and  _639
REMARK  266  A    between atoms: _639  and  _640
REMARK  267  A    between atoms: _639  and  _642
REMARK  268  A    between atoms: _642  and  _643
REMARK  269  A    between atoms: _648  and  _650
REMARK  270  A    between atoms: _650  and  _651
REMARK  271  A    between atoms: _650  and  _653
REMARK  272  A    between atoms: _653  and  _654
REMARK  273  A    between atoms: _659  and  _660
REMARK  274  A    between atoms: _662  and  _664
REMARK  275  A    between atoms: _664  and  _665
REMARK  276  A    between atoms: _664  and  _667
REMARK  277  A    between atoms: _667  and  _668
REMARK  278  A    between atoms: _668  and  _669
REMARK  279  A    between atoms: _669  and  _670
REMARK                            x       y       z     vdW  Elec       q    Type
REMARK                         _______ _______ _______ _____ _____    ______ ____
ROOT
ATOM      1  CA  LEU A   1       4.044   7.482  12.367  0.00  0.00    +0.133 C 
ENDROOT
BRANCH   1   2
ATOM      2  N   LEU A   1       2.615   7.193  12.599  0.00  0.00    -0.239 NA
ATOM      3  H   LEU A   1       2.312   6.916  13.555  0.00  0.00    +0.142 HD
ENDBRANCH   1   2
BRANCH   1   4
ATOM      4  C   LEU A   1       4.655   6.904  11.076  0.00  0.00    +0.224 C 
ATOM      5  O   LEU A   1       5.378   7.627  10.376  0.00  0.00    -0.287 OA
ENDBRANCH   1   4
BRANCH   1   6
ATOM      6  CB  LEU A   1       4.915   7.128  13.596  0.00  0.00    +0.025 C 
BRANCH   6   7
ATOM      7  CG  LEU A   1       6.392   7.560  13.523  0.00  0.00    +0.002 C 
ATOM      8  CD2 LEU A   1       7.182   6.993  14.693  0.00  0.00    +0.000 C 
ATOM      9  CD1 LEU A   1       6.538   9.135  13.423  0.00  0.00    +0.000 C 
ENDBRANCH   6   7
ENDBRANCH   1   6
TORSDOF 4
REMARK  Name = ../refined-set-2016/3t8v/3t8v_pocket.pdb
REMARK  279 active torsions:
REMARK  status: ('A' for Active; 'I' for Inactive)
REMARK    1  A    between atoms: _1  and  _3
REMARK    2  A    between atoms: _3  and  _4
REMARK    3  A    between atoms: _7  and  _9
REMARK    4  A    between atoms: _9  and  _10
REMARK    5  A    between atoms: _9  and  _12
REMARK    6  A    between atoms: _12  and  _13
REMARK    7  A    between atoms: _16  and  _18
REMARK    8  A    between atoms: _18  and  _19
REMARK    9  A    between atoms: _18  and  _21
REMARK   10  A    between atoms: _21  and  _22
REMARK   11  A    between atoms: _25  and  _27
REMARK   12  A    between atoms: _27  and  _28
REMARK   13  A    between atoms: _27  and  _30
REMARK   14  A    between atoms: _30  and  _31
REMARK   15  A    between atoms: _31  and  _32
REMARK   16  A    between atoms: _37  and  _39
REMARK   17  A    between atoms: _39  and  _40
REMARK   18  A    between atoms: _39  and  _42
REMARK   19  A    between atoms: _44  and  _46
REMARK   20  A    between atoms: _46  and  _47
REMARK   21  A    between atoms: _46  and  _49
REMARK   22  A    between atoms: _49  and  _50
REMARK   23  A    between atoms: _50  and  _51
REMARK   24  A    between atoms: _54  and  _56
REMARK   25  A    between atoms: _56  and  _57
REMARK   26  A    between atoms: _60  and  _62
REMARK   27  A    between atoms: _62  and  _63
REMARK   28  A    between atoms: _62  and  _65
REMARK   29  A    between atoms: _65  and  _66
REMARK   30  A    between atoms: _69  and  _71
REMARK   31  A    between atoms: _71  and  _72
REMARK   32  A    between atoms: _74  and  _76
REMARK   33  A    between atoms: _76  and  _77
REMARK   34  A    between atoms: _76  and  _79
REMARK   35  A    between atoms: _79  and  _80
REMARK   36  A    between atoms: _85  and  _86
REMARK   37  A    between atoms: _88  and  _90
REMARK   38  A    between atoms: _90  and  _91
REMARK   39  A    between atoms: _90  and  _93
REMARK   40  A    between atoms: _93  and  _94
REMARK   41  A    between atoms: _100  and  _102
REMARK   42  A    between atoms: _102  and  _103
REMARK   43  A    between atoms: _102  and  _105
REMARK   44  A    between atoms: _105  and  _106
REMARK   45  A    between atoms: _111  and  _113
REMARK   46  A    between atoms: _113  and  _114
REMARK   47  A    between atoms: _113  and  _116
REMARK   48  A    between atoms: _119  and  _121
REMARK   49  A    between atoms: _121  and  _122
REMARK   50  A    between atoms: _124  and  _126
REMARK   51  A    between atoms: _126  and  _127
REMARK   52  A    between atoms: _130  and  _132
REMARK   53  A    between atoms: _132  and  _133
REMARK   54  A    between atoms: _132  and  _135
REMARK   55  A    between atoms: _135  and  _136
REMARK   56  A    between atoms: _136  and  _137
REMARK   57  A    between atoms: _139  and  _141
REMARK   58  A    between atoms: _141  and  _142
REMARK   59  A    between atoms: _141  and  _144
REMARK   60  A    between atoms: _144  and  _145
REMARK   61  A    between atoms: _145  and  _146
REMARK   62  A    between atoms: _149  and  _151
REMARK   63  A    between atoms: _151  and  _152
REMARK   64  A    between atoms: _151  and  _154
REMARK   65  A    between atoms: _154  and  _155
REMARK   66  A    between atoms: _160  and  _162
REMARK   67  A    between atoms: _162  and  _163
REMARK   68  A    between atoms: _162  and  _165
REMARK   69  A    between atoms: _165  and  _166
REMARK   70  A    between atoms: _169  and  _171
REMARK   71  A    between atoms: _171  and  _172
REMARK   72  A    between atoms: _171  and  _174
REMARK   73  A    between atoms: _174  and  _175
REMARK   74  A    between atoms: _181  and  _183
REMARK   75  A    between atoms: _183  and  _184
REMARK   76  A    between atoms: _183  and  _186
REMARK   77  A    between atoms: _186  and  _187
REMARK   78  A    between atoms: _192  and  _194
REMARK   79  A    between atoms: _194  and  _195
REMARK   80  A    between atoms: _194  and  _197
REMARK   81  A    between atoms: _197  and  _198
REMARK   82  A    between atoms: _203  and  _205
REMARK   83  A    between atoms: _205  and  _206
REMARK   84  A    between atoms: _205  and  _208
REMARK   85  A    between atoms: _208  and  _209
REMARK   86  A    between atoms: _211  and  _213
REMARK   87  A    between atoms: _213  and  _214
REMARK   88  A    between atoms: _213  and  _216
REMARK   89  A    between atoms: _216  and  _217
REMARK   90  A    between atoms: _217  and  _218
REMARK   91  A    between atoms: _218  and  _219
REMARK   92  A    between atoms: _228  and  _230
REMARK   93  A    between atoms: _230  and  _231
REMARK   94  A    between atoms: _230  and  _233
REMARK   95  A    between atoms: _233  and  _234
REMARK   96  A    between atoms: _237  and  _239
REMARK   97  A    between atoms: _239  and  _240
REMARK   98  A    between atoms: _239  and  _242
REMARK   99  A    between atoms: _245  and  _247
REMARK  100  A    between atoms: _247  and  _248
REMARK  101  A    between atoms: _247  and  _250
REMARK  102  A    between atoms: _253  and  _255
REMARK  103  A    between atoms: _255  and  _256
REMARK  104  A    between atoms: _258  and  _260
REMARK  105  A    between atoms: _260  and  _261
REMARK  106  A    between atoms: _260  and  _263
REMARK  107  A    between atoms: _263  and  _264
REMARK  108  A    between atoms: _268  and  ZN_679
REMARK  109  A    between atoms: _269  and  _271
REMARK  110  A    between atoms: _271  and  _272
REMARK  111  A    between atoms: _271  and  _274
REMARK  112  A    between atoms: _274  and  _275
REMARK  113  A    between atoms: _275  and  _276
REMARK  114  A    between atoms: _279  and  _281
REMARK  115  A    between atoms: _281  and  _282
REMARK  116  A    between atoms: _281  and  _284
REMARK  117  A    between atoms: _284  and  _285
REMARK  118  A    between atoms: _290  and  _291
REMARK  119  A    between atoms: _293  and  _295
REMARK  120  A    between atoms: _295  and  _296
REMARK  121  A    between atoms: _295  and  _298
REMARK  122  A    between atoms: _298  and  _299
REMARK  123  A    between atoms: _303  and  ZN_679
REMARK  124  A    between atoms: _304  and  _306
REMARK  125  A    between atoms: _306  and  _307
REMARK  126  A    between atoms: _306  and  _309
REMARK  127  A    between atoms: _309  and  _310
REMARK  128  A    between atoms: _320  and  _322
REMARK  129  A    between atoms: _322  and  _323
REMARK  130  A    between atoms: _322  and  _325
REMARK  131  A    between atoms: _325  and  _326
REMARK  132  A    between atoms: _329  and  _331
REMARK  133  A    between atoms: _331  and  _332
REMARK  134  A    between atoms: _331  and  _334
REMARK  135  A    between atoms: _334  and  _335
REMARK  136  A    between atoms: _335  and  _336
REMARK  137  A    between atoms: _336  and  _337
REMARK  138  A    between atoms: _337  and  _338
REMARK  139  A    between atoms: _342  and  _344
REMARK  140  A    between atoms: _344  and  _345
REMARK  141  A    between atoms: _344  and  _347
REMARK  142  A    between atoms: _347  and  _348
REMARK  143  A    between atoms: _348  and  _349
REMARK  144  A    between atoms: _349  and  _350
REMARK  145  A    between atoms: _350  and  ZN_679
REMARK  146  A    between atoms: _352  and  _354
REMARK  147  A    between atoms: _354  and  _355
REMARK  148  A    between atoms: _354  and  _357
REMARK  149  A    between atoms: _357  and  _358
REMARK  150  A    between atoms: _361  and  _363
REMARK  151  A    between atoms: _363  and  _364
REMARK  152  A    between atoms: _363  and  _366
REMARK  153  A    between atoms: _369  and  _371
REMARK  154  A    between atoms: _371  and  _372
REMARK  155  A    between atoms: _371  and  _374
REMARK  156  A    between atoms: _374  and  _375
REMARK  157  A    between atoms: _375  and  _376
REMARK  158  A    between atoms: _379  and  _381
REMARK  159  A    between atoms: _381  and  _382
REMARK  160  A    between atoms: _381  and  _384
REMARK  161  A    between atoms: _384  and  _385
REMARK  162  A    between atoms: _385  and  _386
REMARK  163  A    between atoms: _389  and  _391
REMARK  164  A    between atoms: _391  and  _392
REMARK  165  A    between atoms: _391  and  _394
REMARK  166  A    between atoms: _394  and  _395
REMARK  167  A    between atoms: _398  and  _400
REMARK  168  A    between atoms: _400  and  _401
REMARK  169  A    between atoms: _400  and  _403
REMARK  170  A    between atoms: _403  and  _404
REMARK  171  A    between atoms: _409  and  _411
REMARK  172  A    between atoms: _411  and  _412
REMARK  173  A    between atoms: _411  and  _414
REMARK  174  A    between atoms: _414  and  _415
REMARK  175  A    between atoms: _417  and  _419
REMARK  176  A    between atoms: _419  and  _420
REMARK  177  A    between atoms: _419  and  _422
REMARK  178  A    between atoms: _422  and  _423
REMARK  179  A    between atoms: _423  and  _424
REMARK  180  A    between atoms: _426  and  _428
REMARK  181  A    between atoms: _428  and  _429
REMARK  182  A    between atoms: _432  and  _434
REMARK  183  A    between atoms: _434  and  _435
REMARK  184  A    between atoms: _434  and  _437
REMARK  185  A    between atoms: _437  and  _438
REMARK  186  A    between atoms: _443  and  _445
REMARK  187  A    between atoms: _445  and  _446
REMARK  188  A    between atoms: _445  and  _448
REMARK  189  A    between atoms: _448  and  _449
REMARK  190  A    between atoms: _455  and  _457
REMARK  191  A    between atoms: _457  and  _458
REMARK  192  A    between atoms: _457  and  _460
REMARK  193  A    between atoms: _460  and  _461
REMARK  194  A    between atoms: _466  and  _467
REMARK  195  A    between atoms: _469  and  _471
REMARK  196  A    between atoms: _471  and  _472
REMARK  197  A    between atoms: _471  and  _474
REMARK  198  A    between atoms: _474  and  _475
REMARK  199  A    between atoms: _478  and  _480
REMARK  200  A    between atoms: _480  and  _481
REMARK  201  A    between atoms: _480  and  _483
REMARK  202  A    between atoms: _483  and  _484
REMARK  203  A    between atoms: _487  and  _489
REMARK  204  A    between atoms: _489  and  _490
REMARK  205  A    between atoms: _489  and  _492
REMARK  206  A    between atoms: _492  and  _493
REMARK  207  A    between atoms: _496  and  _498
REMARK  208  A    between atoms: _498  and  _499
REMARK  209  A    between atoms: _498  and  _501
REMARK  210  A    between atoms: _501  and  _502
REMARK  211  A    between atoms: _507  and  _508
REMARK  212  A    between atoms: _510  and  _512
REMARK  213  A    between atoms: _512  and  _513
REMARK  214  A    between atoms: _512  and  _515
REMARK  215  A    between atoms: _515  and  _516
REMARK  216  A    between atoms: _519  and  _521
REMARK  217  A    between atoms: _521  and  _522
REMARK  218  A    between atoms: _521  and  _524
REMARK  219  A    between atoms: _524  and  _525
REMARK  220  A    between atoms: _525  and  _526
REMARK  221  A    between atoms: _526  and  _527
REMARK  222  A    between atoms: _536  and  _538
REMARK  223  A    between atoms: _538  and  _539
REMARK  224  A    between atoms: _538  and  _541
REMARK  225  A    between atoms: _541  and  _542
REMARK  226  A    between atoms: _548  and  _549
REMARK  227  A    between atoms: _554  and  _556
REMARK  228  A    between atoms: _556  and  _557
REMARK  229  A    between atoms: _556  and  _559
REMARK  230  A    between atoms: _559  and  _560
REMARK  231  A    between atoms: _560  and  _561
REMARK  232  A    between atoms: _563  and  _565
REMARK  233  A    between atoms: _565  and  _566
REMARK  234  A    between atoms: _565  and  _568
REMARK  235  A    between atoms: _571  and  _573
REMARK  236  A    between atoms: _573  and  _574
REMARK  237  A    between atoms: _577  and  _579
REMARK  238  A    between atoms: _579  and  _580
REMARK  239  A    between atoms: _579  and  _582
REMARK  240  A    between atoms: _582  and  _583
REMARK  241  A    between atoms: _586  and  _588
REMARK  242  A    between atoms: _588  and  _589
REMARK  243  A    between atoms: _588  and  _591
REMARK  244  A    between atoms: _591  and  _592
REMARK  245  A    between atoms: _592  and  _593
REMARK  246  A    between atoms: _598  and  _600
REMARK  247  A    between atoms: _600  and  _601
REMARK  248  A    between atoms: _600  and  _603
REMARK  249  A    between atoms: _603  and  _604
REMARK  250  A    between atoms: _607  and  _609
REMARK  251  A    between atoms: _609  and  _610
REMARK  252  A    between atoms: _609  and  _612
REMARK  253  A    between atoms: _614  and  _616
REMARK  254  A    between atoms: _616  and  _617
REMARK  255  A    between atoms: _616  and  _619
REMARK  256  A    between atoms: _619  and  _620
REMARK  257  A    between atoms: _620  and  _621
REMARK  258  A    between atoms: _624  and  _626
REMARK  259  A    between atoms: _626  and  _627
REMARK  260  A    between atoms: _626  and  _629
REMARK  261  A    between atoms: _629  and  _630
REMARK  262  A    between atoms: _630  and  _631
REMARK  263  A    between atoms: _631  and  _632
REMARK  264  A    between atoms: _632  and  _633
REMARK  265  A    between atoms: _637  and  _639
REMARK  266  A    between atoms: _639  and  _640
REMARK  267  A    between atoms: _639  and  _642
REMARK  268  A    between atoms: _642  and  _643
REMARK  269  A    between atoms: _648  and  _650
REMARK  270  A    between atoms: _650  and  _651
REMARK  271  A    between atoms: _650  and  _653
REMARK  272  A    between atoms: _653  and  _654
REMARK  273  A    between atoms: _659  and  _660
REMARK  274  A    between atoms: _662  and  _664
REMARK  275  A    between atoms: _664  and  _665
REMARK  276  A    between atoms: _664  and  _667
REMARK  277  A    between atoms: _667  and  _668
REMARK  278  A    between atoms: _668  and  _669
REMARK  279  A    between atoms: _669  and  _670
REMARK                            x       y       z     vdW  Elec       q    Type
REMARK                         _______ _______ _______ _____ _____    ______ ____
ROOT
ATOM      1  C   THR A   1      11.171   8.263   3.502  0.00  0.00    +0.241 C 
ATOM      2  N   VAL A   2      11.322   7.157   4.268  0.00  0.00    -0.298 N 
ATOM      3  H   VAL A   2      10.614   6.941   4.998  0.00  0.00    +0.150 HD
ATOM      4  O   THR A   1      11.996   8.620   2.673  0.00  0.00    -0.274 OA
ENDROOT
BRANCH   1   5
ATOM      5  CA  THR A   1       9.904   9.103   3.669  0.00  0.00    +0.172 C 
BRANCH   5   6
ATOM      6  N   THR A   1       8.740   8.241   3.908  0.00  0.00    -0.236 NA
ATOM      7  H   THR A   1       8.318   8.200   4.858  0.00  0.00    +0.142 HD
ENDBRANCH   5   6
BRANCH   5   8
ATOM      8  CB  THR A   1      10.009  10.230   4.688  0.00  0.00    +0.135 C 
ATOM      9  CG2 THR A   1      11.163  11.158   4.391  0.00  0.00    +0.034 C 
BRANCH   8  10
ATOM     10  OG1 THR A   1       8.788  10.988   4.640  0.00  0.00    -0.383 OA
ATOM     11  HG1 THR A   1       8.025  10.397   4.861  0.00  0.00    +0.210 HD
ENDBRANCH   8  10
ENDBRANCH   5   8
ENDBRANCH   1   5
BRANCH   2  12
ATOM     12  CA  VAL A   2      12.475   6.251   4.085  0.00  0.00    +0.137 C 
BRANCH  12  13
ATOM     13  CB  VAL A   2      12.588   5.166   5.188  0.00  0.00    +0.026 C 
ATOM     14  CG2 VAL A   2      12.925   5.815   6.523  0.00  0.00    +0.002 C 
ATOM     15  CG1 VAL A   2      13.657   4.117   4.836  0.00  0.00    +0.002 C 
ENDBRANCH  12  13
BRANCH  12  16
ATOM     16  C   VAL A   2      12.381   5.663   2.667  0.00  0.00    +0.227 C 
ATOM     17  O   VAL A   2      13.398   5.560   2.000  0.00  0.00    -0.286 OA
ENDBRANCH  12  16
ENDBRANCH   2  12
TORSDOF 7
REMARK  Name = ../refined-set-2016/3t8v/3t8v_pocket.pdb
REMARK  279 active torsions:
REMARK  status: ('A' for Active; 'I' for Inactive)
REMARK    1  A    between atoms: _1  and  _3
REMARK    2  A    between atoms: _3  and  _4
REMARK    3  A    between atoms: _7  and  _9
REMARK    4  A    between atoms: _9  and  _10
REMARK    5  A    between atoms: _9  and  _12
REMARK    6  A    between atoms: _12  and  _13
REMARK    7  A    between atoms: _16  and  _18
REMARK    8  A    between atoms: _18  and  _19
REMARK    9  A    between atoms: _18  and  _21
REMARK   10  A    between atoms: _21  and  _22
REMARK   11  A    between atoms: _25  and  _27
REMARK   12  A    between atoms: _27  and  _28
REMARK   13  A    between atoms: _27  and  _30
REMARK   14  A    between atoms: _30  and  _31
REMARK   15  A    between atoms: _31  and  _32
REMARK   16  A    between atoms: _37  and  _39
REMARK   17  A    between atoms: _39  and  _40
REMARK   18  A    between atoms: _39  and  _42
REMARK   19  A    between atoms: _44  and  _46
REMARK   20  A    between atoms: _46  and  _47
REMARK   21  A    between atoms: _46  and  _49
REMARK   22  A    between atoms: _49  and  _50
REMARK   23  A    between atoms: _50  and  _51
REMARK   24  A    between atoms: _54  and  _56
REMARK   25  A    between atoms: _56  and  _57
REMARK   26  A    between atoms: _60  and  _62
REMARK   27  A    between atoms: _62  and  _63
REMARK   28  A    between atoms: _62  and  _65
REMARK   29  A    between atoms: _65  and  _66
REMARK   30  A    between atoms: _69  and  _71
REMARK   31  A    between atoms: _71  and  _72
REMARK   32  A    between atoms: _74  and  _76
REMARK   33  A    between atoms: _76  and  _77
REMARK   34  A    between atoms: _76  and  _79
REMARK   35  A    between atoms: _79  and  _80
REMARK   36  A    between atoms: _85  and  _86
REMARK   37  A    between atoms: _88  and  _90
REMARK   38  A    between atoms: _90  and  _91
REMARK   39  A    between atoms: _90  and  _93
REMARK   40  A    between atoms: _93  and  _94
REMARK   41  A    between atoms: _100  and  _102
REMARK   42  A    between atoms: _102  and  _103
REMARK   43  A    between atoms: _102  and  _105
REMARK   44  A    between atoms: _105  and  _106
REMARK   45  A    between atoms: _111  and  _113
REMARK   46  A    between atoms: _113  and  _114
REMARK   47  A    between atoms: _113  and  _116
REMARK   48  A    between atoms: _119  and  _121
REMARK   49  A    between atoms: _121  and  _122
REMARK   50  A    between atoms: _124  and  _126
REMARK   51  A    between atoms: _126  and  _127
REMARK   52  A    between atoms: _130  and  _132
REMARK   53  A    between atoms: _132  and  _133
REMARK   54  A    between atoms: _132  and  _135
REMARK   55  A    between atoms: _135  and  _136
REMARK   56  A    between atoms: _136  and  _137
REMARK   57  A    between atoms: _139  and  _141
REMARK   58  A    between atoms: _141  and  _142
REMARK   59  A    between atoms: _141  and  _144
REMARK   60  A    between atoms: _144  and  _145
REMARK   61  A    between atoms: _145  and  _146
REMARK   62  A    between atoms: _149  and  _151
REMARK   63  A    between atoms: _151  and  _152
REMARK   64  A    between atoms: _151  and  _154
REMARK   65  A    between atoms: _154  and  _155
REMARK   66  A    between atoms: _160  and  _162
REMARK   67  A    between atoms: _162  and  _163
REMARK   68  A    between atoms: _162  and  _165
REMARK   69  A    between atoms: _165  and  _166
REMARK   70  A    between atoms: _169  and  _171
REMARK   71  A    between atoms: _171  and  _172
REMARK   72  A    between atoms: _171  and  _174
REMARK   73  A    between atoms: _174  and  _175
REMARK   74  A    between atoms: _181  and  _183
REMARK   75  A    between atoms: _183  and  _184
REMARK   76  A    between atoms: _183  and  _186
REMARK   77  A    between atoms: _186  and  _187
REMARK   78  A    between atoms: _192  and  _194
REMARK   79  A    between atoms: _194  and  _195
REMARK   80  A    between atoms: _194  and  _197
REMARK   81  A    between atoms: _197  and  _198
REMARK   82  A    between atoms: _203  and  _205
REMARK   83  A    between atoms: _205  and  _206
REMARK   84  A    between atoms: _205  and  _208
REMARK   85  A    between atoms: _208  and  _209
REMARK   86  A    between atoms: _211  and  _213
REMARK   87  A    between atoms: _213  and  _214
REMARK   88  A    between atoms: _213  and  _216
REMARK   89  A    between atoms: _216  and  _217
REMARK   90  A    between atoms: _217  and  _218
REMARK   91  A    between atoms: _218  and  _219
REMARK   92  A    between atoms: _228  and  _230
REMARK   93  A    between atoms: _230  and  _231
REMARK   94  A    between atoms: _230  and  _233
REMARK   95  A    between atoms: _233  and  _234
REMARK   96  A    between atoms: _237  and  _239
REMARK   97  A    between atoms: _239  and  _240
REMARK   98  A    between atoms: _239  and  _242
REMARK   99  A    between atoms: _245  and  _247
REMARK  100  A    between atoms: _247  and  _248
REMARK  101  A    between atoms: _247  and  _250
REMARK  102  A    between atoms: _253  and  _255
REMARK  103  A    between atoms: _255  and  _256
REMARK  104  A    between atoms: _258  and  _260
REMARK  105  A    between atoms: _260  and  _261
REMARK  106  A    between atoms: _260  and  _263
REMARK  107  A    between atoms: _263  and  _264
REMARK  108  A    between atoms: _268  and  ZN_679
REMARK  109  A    between atoms: _269  and  _271
REMARK  110  A    between atoms: _271  and  _272
REMARK  111  A    between atoms: _271  and  _274
REMARK  112  A    between atoms: _274  and  _275
REMARK  113  A    between atoms: _275  and  _276
REMARK  114  A    between atoms: _279  and  _281
REMARK  115  A    between atoms: _281  and  _282
REMARK  116  A    between atoms: _281  and  _284
REMARK  117  A    between atoms: _284  and  _285
REMARK  118  A    between atoms: _290  and  _291
REMARK  119  A    between atoms: _293  and  _295
REMARK  120  A    between atoms: _295  and  _296
REMARK  121  A    between atoms: _295  and  _298
REMARK  122  A    between atoms: _298  and  _299
REMARK  123  A    between atoms: _303  and  ZN_679
REMARK  124  A    between atoms: _304  and  _306
REMARK  125  A    between atoms: _306  and  _307
REMARK  126  A    between atoms: _306  and  _309
REMARK  127  A    between atoms: _309  and  _310
REMARK  128  A    between atoms: _320  and  _322
REMARK  129  A    between atoms: _322  and  _323
REMARK  130  A    between atoms: _322  and  _325
REMARK  131  A    between atoms: _325  and  _326
REMARK  132  A    between atoms: _329  and  _331
REMARK  133  A    between atoms: _331  and  _332
REMARK  134  A    between atoms: _331  and  _334
REMARK  135  A    between atoms: _334  and  _335
REMARK  136  A    between atoms: _335  and  _336
REMARK  137  A    between atoms: _336  and  _337
REMARK  138  A    between atoms: _337  and  _338
REMARK  139  A    between atoms: _342  and  _344
REMARK  140  A    between atoms: _344  and  _345
REMARK  141  A    between atoms: _344  and  _347
REMARK  142  A    between atoms: _347  and  _348
REMARK  143  A    between atoms: _348  and  _349
REMARK  144  A    between atoms: _349  and  _350
REMARK  145  A    between atoms: _350  and  ZN_679
REMARK  146  A    between atoms: _352  and  _354
REMARK  147  A    between atoms: _354  and  _355
REMARK  148  A    between atoms: _354  and  _357
REMARK  149  A    between atoms: _357  and  _358
REMARK  150  A    between atoms: _361  and  _363
REMARK  151  A    between atoms: _363  and  _364
REMARK  152  A    between atoms: _363  and  _366
REMARK  153  A    between atoms: _369  and  _371
REMARK  154  A    between atoms: _371  and  _372
REMARK  155  A    between atoms: _371  and  _374
REMARK  156  A    between atoms: _374  and  _375
REMARK  157  A    between atoms: _375  and  _376
REMARK  158  A    between atoms: _379  and  _381
REMARK  159  A    between atoms: _381  and  _382
REMARK  160  A    between atoms: _381  and  _384
REMARK  161  A    between atoms: _384  and  _385
REMARK  162  A    between atoms: _385  and  _386
REMARK  163  A    between atoms: _389  and  _391
REMARK  164  A    between atoms: _391  and  _392
REMARK  165  A    between atoms: _391  and  _394
REMARK  166  A    between atoms: _394  and  _395
REMARK  167  A    between atoms: _398  and  _400
REMARK  168  A    between atoms: _400  and  _401
REMARK  169  A    between atoms: _400  and  _403
REMARK  170  A    between atoms: _403  and  _404
REMARK  171  A    between atoms: _409  and  _411
REMARK  172  A    between atoms: _411  and  _412
REMARK  173  A    between atoms: _411  and  _414
REMARK  174  A    between atoms: _414  and  _415
REMARK  175  A    between atoms: _417  and  _419
REMARK  176  A    between atoms: _419  and  _420
REMARK  177  A    between atoms: _419  and  _422
REMARK  178  A    between atoms: _422  and  _423
REMARK  179  A    between atoms: _423  and  _424
REMARK  180  A    between atoms: _426  and  _428
REMARK  181  A    between atoms: _428  and  _429
REMARK  182  A    between atoms: _432  and  _434
REMARK  183  A    between atoms: _434  and  _435
REMARK  184  A    between atoms: _434  and  _437
REMARK  185  A    between atoms: _437  and  _438
REMARK  186  A    between atoms: _443  and  _445
REMARK  187  A    between atoms: _445  and  _446
REMARK  188  A    between atoms: _445  and  _448
REMARK  189  A    between atoms: _448  and  _449
REMARK  190  A    between atoms: _455  and  _457
REMARK  191  A    between atoms: _457  and  _458
REMARK  192  A    between atoms: _457  and  _460
REMARK  193  A    between atoms: _460  and  _461
REMARK  194  A    between atoms: _466  and  _467
REMARK  195  A    between atoms: _469  and  _471
REMARK  196  A    between atoms: _471  and  _472
REMARK  197  A    between atoms: _471  and  _474
REMARK  198  A    between atoms: _474  and  _475
REMARK  199  A    between atoms: _478  and  _480
REMARK  200  A    between atoms: _480  and  _481
REMARK  201  A    between atoms: _480  and  _483
REMARK  202  A    between atoms: _483  and  _484
REMARK  203  A    between atoms: _487  and  _489
REMARK  204  A    between atoms: _489  and  _490
REMARK  205  A    between atoms: _489  and  _492
REMARK  206  A    between atoms: _492  and  _493
REMARK  207  A    between atoms: _496  and  _498
REMARK  208  A    between atoms: _498  and  _499
REMARK  209  A    between atoms: _498  and  _501
REMARK  210  A    between atoms: _501  and  _502
REMARK  211  A    between atoms: _507  and  _508
REMARK  212  A    between atoms: _510  and  _512
REMARK  213  A    between atoms: _512  and  _513
REMARK  214  A    between atoms: _512  and  _515
REMARK  215  A    between atoms: _515  and  _516
REMARK  216  A    between atoms: _519  and  _521
REMARK  217  A    between atoms: _521  and  _522
REMARK  218  A    between atoms: _521  and  _524
REMARK  219  A    between atoms: _524  and  _525
REMARK  220  A    between atoms: _525  and  _526
REMARK  221  A    between atoms: _526  and  _527
REMARK  222  A    between atoms: _536  and  _538
REMARK  223  A    between atoms: _538  and  _539
REMARK  224  A    between atoms: _538  and  _541
REMARK  225  A    between atoms: _541  and  _542
REMARK  226  A    between atoms: _548  and  _549
REMARK  227  A    between atoms: _554  and  _556
REMARK  228  A    between atoms: _556  and  _557
REMARK  229  A    between atoms: _556  and  _559
REMARK  230  A    between atoms: _559  and  _560
REMARK  231  A    between atoms: _560  and  _561
REMARK  232  A    between atoms: _563  and  _565
REMARK  233  A    between atoms: _565  and  _566
REMARK  234  A    between atoms: _565  and  _568
REMARK  235  A    between atoms: _571  and  _573
REMARK  236  A    between atoms: _573  and  _574
REMARK  237  A    between atoms: _577  and  _579
REMARK  238  A    between atoms: _579  and  _580
REMARK  239  A    between atoms: _579  and  _582
REMARK  240  A    between atoms: _582  and  _583
REMARK  241  A    between atoms: _586  and  _588
REMARK  242  A    between atoms: _588  and  _589
REMARK  243  A    between atoms: _588  and  _591
REMARK  244  A    between atoms: _591  and  _592
REMARK  245  A    between atoms: _592  and  _593
REMARK  246  A    between atoms: _598  and  _600
REMARK  247  A    between atoms: _600  and  _601
REMARK  248  A    between atoms: _600  and  _603
REMARK  249  A    between atoms: _603  and  _604
REMARK  250  A    between atoms: _607  and  _609
REMARK  251  A    between atoms: _609  and  _610
REMARK  252  A    between atoms: _609  and  _612
REMARK  253  A    between atoms: _614  and  _616
REMARK  254  A    between atoms: _616  and  _617
REMARK  255  A    between atoms: _616  and  _619
REMARK  256  A    between atoms: _619  and  _620
REMARK  257  A    between atoms: _620  and  _621
REMARK  258  A    between atoms: _624  and  _626
REMARK  259  A    between atoms: _626  and  _627
REMARK  260  A    between atoms: _626  and  _629
REMARK  261  A    between atoms: _629  and  _630
REMARK  262  A    between atoms: _630  and  _631
REMARK  263  A    between atoms: _631  and  _632
REMARK  264  A    between atoms: _632  and  _633
REMARK  265  A    between atoms: _637  and  _639
REMARK  266  A    between atoms: _639  and  _640
REMARK  267  A    between atoms: _639  and  _642
REMARK  268  A    between atoms: _642  and  _643
REMARK  269  A    between atoms: _648  and  _650
REMARK  270  A    between atoms: _650  and  _651
REMARK  271  A    between atoms: _650  and  _653
REMARK  272  A    between atoms: _653  and  _654
REMARK  273  A    between atoms: _659  and  _660
REMARK  274  A    between atoms: _662  and  _664
REMARK  275  A    between atoms: _664  and  _665
REMARK  276  A    between atoms: _664  and  _667
REMARK  277  A    between atoms: _667  and  _668
REMARK  278  A    between atoms: _668  and  _669
REMARK  279  A    between atoms: _669  and  _670
REMARK                            x       y       z     vdW  Elec       q    Type
REMARK                         _______ _______ _______ _____ _____    ______ ____
ROOT
ATOM      1  CA  GLU A   1      14.970   8.519   0.560  0.00  0.00    +0.134 C 
ENDROOT
BRANCH   1   2
ATOM      2  N   GLU A   1      13.526   8.414   0.325  0.00  0.00    -0.239 NA
ATOM      3  H   GLU A   1      12.916   8.277   1.156  0.00  0.00    +0.142 HD
ENDBRANCH   1   2
BRANCH   1   4
ATOM      4  C   GLU A   1      15.710   7.384  -0.179  0.00  0.00    +0.224 C 
ATOM      5  O   GLU A   1      16.727   7.638  -0.849  0.00  0.00    -0.287 OA
ENDBRANCH   1   4
BRANCH   1   6
ATOM      6  CB  GLU A   1      15.199   8.444   2.084  0.00  0.00    +0.037 C 
BRANCH   6   7
ATOM      7  CG  GLU A   1      16.624   8.299   2.588  0.00  0.00    +0.116 C 
BRANCH   7   8
ATOM      8  CD  GLU A   1      16.765   7.607   3.945  0.00  0.00    +0.365 C 
ATOM      9  OE2 GLU A   1      15.842   7.672   4.793  0.00  0.00    -0.246 OA
ATOM     10  OE1 GLU A   1      17.833   6.997   4.161  0.00  0.00    -0.246 OA
ENDBRANCH   7   8
ENDBRANCH   6   7
ENDBRANCH   1   6
TORSDOF 5
REMARK  Name = ../refined-set-2016/3t8v/3t8v_pocket.pdb
REMARK  279 active torsions:
REMARK  status: ('A' for Active; 'I' for Inactive)
REMARK    1  A    between atoms: _1  and  _3
REMARK    2  A    between atoms: _3  and  _4
REMARK    3  A    between atoms: _7  and  _9
REMARK    4  A    between atoms: _9  and  _10
REMARK    5  A    between atoms: _9  and  _12
REMARK    6  A    between atoms: _12  and  _13
REMARK    7  A    between atoms: _16  and  _18
REMARK    8  A    between atoms: _18  and  _19
REMARK    9  A    between atoms: _18  and  _21
REMARK   10  A    between atoms: _21  and  _22
REMARK   11  A    between atoms: _25  and  _27
REMARK   12  A    between atoms: _27  and  _28
REMARK   13  A    between atoms: _27  and  _30
REMARK   14  A    between atoms: _30  and  _31
REMARK   15  A    between atoms: _31  and  _32
REMARK   16  A    between atoms: _37  and  _39
REMARK   17  A    between atoms: _39  and  _40
REMARK   18  A    between atoms: _39  and  _42
REMARK   19  A    between atoms: _44  and  _46
REMARK   20  A    between atoms: _46  and  _47
REMARK   21  A    between atoms: _46  and  _49
REMARK   22  A    between atoms: _49  and  _50
REMARK   23  A    between atoms: _50  and  _51
REMARK   24  A    between atoms: _54  and  _56
REMARK   25  A    between atoms: _56  and  _57
REMARK   26  A    between atoms: _60  and  _62
REMARK   27  A    between atoms: _62  and  _63
REMARK   28  A    between atoms: _62  and  _65
REMARK   29  A    between atoms: _65  and  _66
REMARK   30  A    between atoms: _69  and  _71
REMARK   31  A    between atoms: _71  and  _72
REMARK   32  A    between atoms: _74  and  _76
REMARK   33  A    between atoms: _76  and  _77
REMARK   34  A    between atoms: _76  and  _79
REMARK   35  A    between atoms: _79  and  _80
REMARK   36  A    between atoms: _85  and  _86
REMARK   37  A    between atoms: _88  and  _90
REMARK   38  A    between atoms: _90  and  _91
REMARK   39  A    between atoms: _90  and  _93
REMARK   40  A    between atoms: _93  and  _94
REMARK   41  A    between atoms: _100  and  _102
REMARK   42  A    between atoms: _102  and  _103
REMARK   43  A    between atoms: _102  and  _105
REMARK   44  A    between atoms: _105  and  _106
REMARK   45  A    between atoms: _111  and  _113
REMARK   46  A    between atoms: _113  and  _114
REMARK   47  A    between atoms: _113  and  _116
REMARK   48  A    between atoms: _119  and  _121
REMARK   49  A    between atoms: _121  and  _122
REMARK   50  A    between atoms: _124  and  _126
REMARK   51  A    between atoms: _126  and  _127
REMARK   52  A    between atoms: _130  and  _132
REMARK   53  A    between atoms: _132  and  _133
REMARK   54  A    between atoms: _132  and  _135
REMARK   55  A    between atoms: _135  and  _136
REMARK   56  A    between atoms: _136  and  _137
REMARK   57  A    between atoms: _139  and  _141
REMARK   58  A    between atoms: _141  and  _142
REMARK   59  A    between atoms: _141  and  _144
REMARK   60  A    between atoms: _144  and  _145
REMARK   61  A    between atoms: _145  and  _146
REMARK   62  A    between atoms: _149  and  _151
REMARK   63  A    between atoms: _151  and  _152
REMARK   64  A    between atoms: _151  and  _154
REMARK   65  A    between atoms: _154  and  _155
REMARK   66  A    between atoms: _160  and  _162
REMARK   67  A    between atoms: _162  and  _163
REMARK   68  A    between atoms: _162  and  _165
REMARK   69  A    between atoms: _165  and  _166
REMARK   70  A    between atoms: _169  and  _171
REMARK   71  A    between atoms: _171  and  _172
REMARK   72  A    between atoms: _171  and  _174
REMARK   73  A    between atoms: _174  and  _175
REMARK   74  A    between atoms: _181  and  _183
REMARK   75  A    between atoms: _183  and  _184
REMARK   76  A    between atoms: _183  and  _186
REMARK   77  A    between atoms: _186  and  _187
REMARK   78  A    between atoms: _192  and  _194
REMARK   79  A    between atoms: _194  and  _195
REMARK   80  A    between atoms: _194  and  _197
REMARK   81  A    between atoms: _197  and  _198
REMARK   82  A    between atoms: _203  and  _205
REMARK   83  A    between atoms: _205  and  _206
REMARK   84  A    between atoms: _205  and  _208
REMARK   85  A    between atoms: _208  and  _209
REMARK   86  A    between atoms: _211  and  _213
REMARK   87  A    between atoms: _213  and  _214
REMARK   88  A    between atoms: _213  and  _216
REMARK   89  A    between atoms: _216  and  _217
REMARK   90  A    between atoms: _217  and  _218
REMARK   91  A    between atoms: _218  and  _219
REMARK   92  A    between atoms: _228  and  _230
REMARK   93  A    between atoms: _230  and  _231
REMARK   94  A    between atoms: _230  and  _233
REMARK   95  A    between atoms: _233  and  _234
REMARK   96  A    between atoms: _237  and  _239
REMARK   97  A    between atoms: _239  and  _240
REMARK   98  A    between atoms: _239  and  _242
REMARK   99  A    between atoms: _245  and  _247
REMARK  100  A    between atoms: _247  and  _248
REMARK  101  A    between atoms: _247  and  _250
REMARK  102  A    between atoms: _253  and  _255
REMARK  103  A    between atoms: _255  and  _256
REMARK  104  A    between atoms: _258  and  _260
REMARK  105  A    between atoms: _260  and  _261
REMARK  106  A    between atoms: _260  and  _263
REMARK  107  A    between atoms: _263  and  _264
REMARK  108  A    between atoms: _268  and  ZN_679
REMARK  109  A    between atoms: _269  and  _271
REMARK  110  A    between atoms: _271  and  _272
REMARK  111  A    between atoms: _271  and  _274
REMARK  112  A    between atoms: _274  and  _275
REMARK  113  A    between atoms: _275  and  _276
REMARK  114  A    between atoms: _279  and  _281
REMARK  115  A    between atoms: _281  and  _282
REMARK  116  A    between atoms: _281  and  _284
REMARK  117  A    between atoms: _284  and  _285
REMARK  118  A    between atoms: _290  and  _291
REMARK  119  A    between atoms: _293  and  _295
REMARK  120  A    between atoms: _295  and  _296
REMARK  121  A    between atoms: _295  and  _298
REMARK  122  A    between atoms: _298  and  _299
REMARK  123  A    between atoms: _303  and  ZN_679
REMARK  124  A    between atoms: _304  and  _306
REMARK  125  A    between atoms: _306  and  _307
REMARK  126  A    between atoms: _306  and  _309
REMARK  127  A    between atoms: _309  and  _310
REMARK  128  A    between atoms: _320  and  _322
REMARK  129  A    between atoms: _322  and  _323
REMARK  130  A    between atoms: _322  and  _325
REMARK  131  A    between atoms: _325  and  _326
REMARK  132  A    between atoms: _329  and  _331
REMARK  133  A    between atoms: _331  and  _332
REMARK  134  A    between atoms: _331  and  _334
REMARK  135  A    between atoms: _334  and  _335
REMARK  136  A    between atoms: _335  and  _336
REMARK  137  A    between atoms: _336  and  _337
REMARK  138  A    between atoms: _337  and  _338
REMARK  139  A    between atoms: _342  and  _344
REMARK  140  A    between atoms: _344  and  _345
REMARK  141  A    between atoms: _344  and  _347
REMARK  142  A    between atoms: _347  and  _348
REMARK  143  A    between atoms: _348  and  _349
REMARK  144  A    between atoms: _349  and  _350
REMARK  145  A    between atoms: _350  and  ZN_679
REMARK  146  A    between atoms: _352  and  _354
REMARK  147  A    between atoms: _354  and  _355
REMARK  148  A    between atoms: _354  and  _357
REMARK  149  A    between atoms: _357  and  _358
REMARK  150  A    between atoms: _361  and  _363
REMARK  151  A    between atoms: _363  and  _364
REMARK  152  A    between atoms: _363  and  _366
REMARK  153  A    between atoms: _369  and  _371
REMARK  154  A    between atoms: _371  and  _372
REMARK  155  A    between atoms: _371  and  _374
REMARK  156  A    between atoms: _374  and  _375
REMARK  157  A    between atoms: _375  and  _376
REMARK  158  A    between atoms: _379  and  _381
REMARK  159  A    between atoms: _381  and  _382
REMARK  160  A    between atoms: _381  and  _384
REMARK  161  A    between atoms: _384  and  _385
REMARK  162  A    between atoms: _385  and  _386
REMARK  163  A    between atoms: _389  and  _391
REMARK  164  A    between atoms: _391  and  _392
REMARK  165  A    between atoms: _391  and  _394
REMARK  166  A    between atoms: _394  and  _395
REMARK  167  A    between atoms: _398  and  _400
REMARK  168  A    between atoms: _400  and  _401
REMARK  169  A    between atoms: _400  and  _403
REMARK  170  A    between atoms: _403  and  _404
REMARK  171  A    between atoms: _409  and  _411
REMARK  172  A    between atoms: _411  and  _412
REMARK  173  A    between atoms: _411  and  _414
REMARK  174  A    between atoms: _414  and  _415
REMARK  175  A    between atoms: _417  and  _419
REMARK  176  A    between atoms: _419  and  _420
REMARK  177  A    between atoms: _419  and  _422
REMARK  178  A    between atoms: _422  and  _423
REMARK  179  A    between atoms: _423  and  _424
REMARK  180  A    between atoms: _426  and  _428
REMARK  181  A    between atoms: _428  and  _429
REMARK  182  A    between atoms: _432  and  _434
REMARK  183  A    between atoms: _434  and  _435
REMARK  184  A    between atoms: _434  and  _437
REMARK  185  A    between atoms: _437  and  _438
REMARK  186  A    between atoms: _443  and  _445
REMARK  187  A    between atoms: _445  and  _446
REMARK  188  A    between atoms: _445  and  _448
REMARK  189  A    between atoms: _448  and  _449
REMARK  190  A    between atoms: _455  and  _457
REMARK  191  A    between atoms: _457  and  _458
REMARK  192  A    between atoms: _457  and  _460
REMARK  193  A    between atoms: _460  and  _461
REMARK  194  A    between atoms: _466  and  _467
REMARK  195  A    between atoms: _469  and  _471
REMARK  196  A    between atoms: _471  and  _472
REMARK  197  A    between atoms: _471  and  _474
REMARK  198  A    between atoms: _474  and  _475
REMARK  199  A    between atoms: _478  and  _480
REMARK  200  A    between atoms: _480  and  _481
REMARK  201  A    between atoms: _480  and  _483
REMARK  202  A    between atoms: _483  and  _484
REMARK  203  A    between atoms: _487  and  _489
REMARK  204  A    between atoms: _489  and  _490
REMARK  205  A    between atoms: _489  and  _492
REMARK  206  A    between atoms: _492  and  _493
REMARK  207  A    between atoms: _496  and  _498
REMARK  208  A    between atoms: _498  and  _499
REMARK  209  A    between atoms: _498  and  _501
REMARK  210  A    between atoms: _501  and  _502
REMARK  211  A    between atoms: _507  and  _508
REMARK  212  A    between atoms: _510  and  _512
REMARK  213  A    between atoms: _512  and  _513
REMARK  214  A    between atoms: _512  and  _515
REMARK  215  A    between atoms: _515  and  _516
REMARK  216  A    between atoms: _519  and  _521
REMARK  217  A    between atoms: _521  and  _522
REMARK  218  A    between atoms: _521  and  _524
REMARK  219  A    between atoms: _524  and  _525
REMARK  220  A    between atoms: _525  and  _526
REMARK  221  A    between atoms: _526  and  _527
REMARK  222  A    between atoms: _536  and  _538
REMARK  223  A    between atoms: _538  and  _539
REMARK  224  A    between atoms: _538  and  _541
REMARK  225  A    between atoms: _541  and  _542
REMARK  226  A    between atoms: _548  and  _549
REMARK  227  A    between atoms: _554  and  _556
REMARK  228  A    between atoms: _556  and  _557
REMARK  229  A    between atoms: _556  and  _559
REMARK  230  A    between atoms: _559  and  _560
REMARK  231  A    between atoms: _560  and  _561
REMARK  232  A    between atoms: _563  and  _565
REMARK  233  A    between atoms: _565  and  _566
REMARK  234  A    between atoms: _565  and  _568
REMARK  235  A    between atoms: _571  and  _573
REMARK  236  A    between atoms: _573  and  _574
REMARK  237  A    between atoms: _577  and  _579
REMARK  238  A    between atoms: _579  and  _580
REMARK  239  A    between atoms: _579  and  _582
REMARK  240  A    between atoms: _582  and  _583
REMARK  241  A    between atoms: _586  and  _588
REMARK  242  A    between atoms: _588  and  _589
REMARK  243  A    between atoms: _588  and  _591
REMARK  244  A    between atoms: _591  and  _592
REMARK  245  A    between atoms: _592  and  _593
REMARK  246  A    between atoms: _598  and  _600
REMARK  247  A    between atoms: _600  and  _601
REMARK  248  A    between atoms: _600  and  _603
REMARK  249  A    between atoms: _603  and  _604
REMARK  250  A    between atoms: _607  and  _609
REMARK  251  A    between atoms: _609  and  _610
REMARK  252  A    between atoms: _609  and  _612
REMARK  253  A    between atoms: _614  and  _616
REMARK  254  A    between atoms: _616  and  _617
REMARK  255  A    between atoms: _616  and  _619
REMARK  256  A    between atoms: _619  and  _620
REMARK  257  A    between atoms: _620  and  _621
REMARK  258  A    between atoms: _624  and  _626
REMARK  259  A    between atoms: _626  and  _627
REMARK  260  A    between atoms: _626  and  _629
REMARK  261  A    between atoms: _629  and  _630
REMARK  262  A    between atoms: _630  and  _631
REMARK  263  A    between atoms: _631  and  _632
REMARK  264  A    between atoms: _632  and  _633
REMARK  265  A    between atoms: _637  and  _639
REMARK  266  A    between atoms: _639  and  _640
REMARK  267  A    between atoms: _639  and  _642
REMARK  268  A    between atoms: _642  and  _643
REMARK  269  A    between atoms: _648  and  _650
REMARK  270  A    between atoms: _650  and  _651
REMARK  271  A    between atoms: _650  and  _653
REMARK  272  A    between atoms: _653  and  _654
REMARK  273  A    between atoms: _659  and  _660
REMARK  274  A    between atoms: _662  and  _664
REMARK  275  A    between atoms: _664  and  _665
REMARK  276  A    between atoms: _664  and  _667
REMARK  277  A    between atoms: _667  and  _668
REMARK  278  A    between atoms: _668  and  _669
REMARK  279  A    between atoms: _669  and  _670
REMARK                            x       y       z     vdW  Elec       q    Type
REMARK                         _______ _______ _______ _____ _____    ______ ____
ROOT
ATOM      1  CA  GLU A   1      13.092  -6.994  16.270  0.00  0.00    +0.134 C 
ENDROOT
BRANCH   1   2
ATOM      2  N   GLU A   1      14.131  -7.694  15.487  0.00  0.00    -0.239 NA
ATOM      3  H   GLU A   1      14.621  -7.188  14.722  0.00  0.00    +0.142 HD
ENDBRANCH   1   2
BRANCH   1   4
ATOM      4  C   GLU A   1      11.735  -7.697  16.156  0.00  0.00    +0.224 C 
ATOM      5  O   GLU A   1      11.025  -7.868  17.161  0.00  0.00    -0.287 OA
ENDBRANCH   1   4
BRANCH   1   6
ATOM      6  CB  GLU A   1      12.999  -5.512  15.824  0.00  0.00    +0.037 C 
BRANCH   6   7
ATOM      7  CG  GLU A   1      11.969  -4.726  16.623  0.00  0.00    +0.116 C 
BRANCH   7   8
ATOM      8  CD  GLU A   1      12.114  -3.238  16.411  0.00  0.00    +0.365 C 
ATOM      9  OE2 GLU A   1      12.950  -2.628  17.113  0.00  0.00    -0.246 OA
ATOM     10  OE1 GLU A   1      11.512  -2.715  15.445  0.00  0.00    -0.246 OA
ENDBRANCH   7   8
ENDBRANCH   6   7
ENDBRANCH   1   6
TORSDOF 5
REMARK  Name = ../refined-set-2016/3t8v/3t8v_pocket.pdb
REMARK  279 active torsions:
REMARK  status: ('A' for Active; 'I' for Inactive)
REMARK    1  A    between atoms: _1  and  _3
REMARK    2  A    between atoms: _3  and  _4
REMARK    3  A    between atoms: _7  and  _9
REMARK    4  A    between atoms: _9  and  _10
REMARK    5  A    between atoms: _9  and  _12
REMARK    6  A    between atoms: _12  and  _13
REMARK    7  A    between atoms: _16  and  _18
REMARK    8  A    between atoms: _18  and  _19
REMARK    9  A    between atoms: _18  and  _21
REMARK   10  A    between atoms: _21  and  _22
REMARK   11  A    between atoms: _25  and  _27
REMARK   12  A    between atoms: _27  and  _28
REMARK   13  A    between atoms: _27  and  _30
REMARK   14  A    between atoms: _30  and  _31
REMARK   15  A    between atoms: _31  and  _32
REMARK   16  A    between atoms: _37  and  _39
REMARK   17  A    between atoms: _39  and  _40
REMARK   18  A    between atoms: _39  and  _42
REMARK   19  A    between atoms: _44  and  _46
REMARK   20  A    between atoms: _46  and  _47
REMARK   21  A    between atoms: _46  and  _49
REMARK   22  A    between atoms: _49  and  _50
REMARK   23  A    between atoms: _50  and  _51
REMARK   24  A    between atoms: _54  and  _56
REMARK   25  A    between atoms: _56  and  _57
REMARK   26  A    between atoms: _60  and  _62
REMARK   27  A    between atoms: _62  and  _63
REMARK   28  A    between atoms: _62  and  _65
REMARK   29  A    between atoms: _65  and  _66
REMARK   30  A    between atoms: _69  and  _71
REMARK   31  A    between atoms: _71  and  _72
REMARK   32  A    between atoms: _74  and  _76
REMARK   33  A    between atoms: _76  and  _77
REMARK   34  A    between atoms: _76  and  _79
REMARK   35  A    between atoms: _79  and  _80
REMARK   36  A    between atoms: _85  and  _86
REMARK   37  A    between atoms: _88  and  _90
REMARK   38  A    between atoms: _90  and  _91
REMARK   39  A    between atoms: _90  and  _93
REMARK   40  A    between atoms: _93  and  _94
REMARK   41  A    between atoms: _100  and  _102
REMARK   42  A    between atoms: _102  and  _103
REMARK   43  A    between atoms: _102  and  _105
REMARK   44  A    between atoms: _105  and  _106
REMARK   45  A    between atoms: _111  and  _113
REMARK   46  A    between atoms: _113  and  _114
REMARK   47  A    between atoms: _113  and  _116
REMARK   48  A    between atoms: _119  and  _121
REMARK   49  A    between atoms: _121  and  _122
REMARK   50  A    between atoms: _124  and  _126
REMARK   51  A    between atoms: _126  and  _127
REMARK   52  A    between atoms: _130  and  _132
REMARK   53  A    between atoms: _132  and  _133
REMARK   54  A    between atoms: _132  and  _135
REMARK   55  A    between atoms: _135  and  _136
REMARK   56  A    between atoms: _136  and  _137
REMARK   57  A    between atoms: _139  and  _141
REMARK   58  A    between atoms: _141  and  _142
REMARK   59  A    between atoms: _141  and  _144
REMARK   60  A    between atoms: _144  and  _145
REMARK   61  A    between atoms: _145  and  _146
REMARK   62  A    between atoms: _149  and  _151
REMARK   63  A    between atoms: _151  and  _152
REMARK   64  A    between atoms: _151  and  _154
REMARK   65  A    between atoms: _154  and  _155
REMARK   66  A    between atoms: _160  and  _162
REMARK   67  A    between atoms: _162  and  _163
REMARK   68  A    between atoms: _162  and  _165
REMARK   69  A    between atoms: _165  and  _166
REMARK   70  A    between atoms: _169  and  _171
REMARK   71  A    between atoms: _171  and  _172
REMARK   72  A    between atoms: _171  and  _174
REMARK   73  A    between atoms: _174  and  _175
REMARK   74  A    between atoms: _181  and  _183
REMARK   75  A    between atoms: _183  and  _184
REMARK   76  A    between atoms: _183  and  _186
REMARK   77  A    between atoms: _186  and  _187
REMARK   78  A    between atoms: _192  and  _194
REMARK   79  A    between atoms: _194  and  _195
REMARK   80  A    between atoms: _194  and  _197
REMARK   81  A    between atoms: _197  and  _198
REMARK   82  A    between atoms: _203  and  _205
REMARK   83  A    between atoms: _205  and  _206
REMARK   84  A    between atoms: _205  and  _208
REMARK   85  A    between atoms: _208  and  _209
REMARK   86  A    between atoms: _211  and  _213
REMARK   87  A    between atoms: _213  and  _214
REMARK   88  A    between atoms: _213  and  _216
REMARK   89  A    between atoms: _216  and  _217
REMARK   90  A    between atoms: _217  and  _218
REMARK   91  A    between atoms: _218  and  _219
REMARK   92  A    between atoms: _228  and  _230
REMARK   93  A    between atoms: _230  and  _231
REMARK   94  A    between atoms: _230  and  _233
REMARK   95  A    between atoms: _233  and  _234
REMARK   96  A    between atoms: _237  and  _239
REMARK   97  A    between atoms: _239  and  _240
REMARK   98  A    between atoms: _239  and  _242
REMARK   99  A    between atoms: _245  and  _247
REMARK  100  A    between atoms: _247  and  _248
REMARK  101  A    between atoms: _247  and  _250
REMARK  102  A    between atoms: _253  and  _255
REMARK  103  A    between atoms: _255  and  _256
REMARK  104  A    between atoms: _258  and  _260
REMARK  105  A    between atoms: _260  and  _261
REMARK  106  A    between atoms: _260  and  _263
REMARK  107  A    between atoms: _263  and  _264
REMARK  108  A    between atoms: _268  and  ZN_679
REMARK  109  A    between atoms: _269  and  _271
REMARK  110  A    between atoms: _271  and  _272
REMARK  111  A    between atoms: _271  and  _274
REMARK  112  A    between atoms: _274  and  _275
REMARK  113  A    between atoms: _275  and  _276
REMARK  114  A    between atoms: _279  and  _281
REMARK  115  A    between atoms: _281  and  _282
REMARK  116  A    between atoms: _281  and  _284
REMARK  117  A    between atoms: _284  and  _285
REMARK  118  A    between atoms: _290  and  _291
REMARK  119  A    between atoms: _293  and  _295
REMARK  120  A    between atoms: _295  and  _296
REMARK  121  A    between atoms: _295  and  _298
REMARK  122  A    between atoms: _298  and  _299
REMARK  123  A    between atoms: _303  and  ZN_679
REMARK  124  A    between atoms: _304  and  _306
REMARK  125  A    between atoms: _306  and  _307
REMARK  126  A    between atoms: _306  and  _309
REMARK  127  A    between atoms: _309  and  _310
REMARK  128  A    between atoms: _320  and  _322
REMARK  129  A    between atoms: _322  and  _323
REMARK  130  A    between atoms: _322  and  _325
REMARK  131  A    between atoms: _325  and  _326
REMARK  132  A    between atoms: _329  and  _331
REMARK  133  A    between atoms: _331  and  _332
REMARK  134  A    between atoms: _331  and  _334
REMARK  135  A    between atoms: _334  and  _335
REMARK  136  A    between atoms: _335  and  _336
REMARK  137  A    between atoms: _336  and  _337
REMARK  138  A    between atoms: _337  and  _338
REMARK  139  A    between atoms: _342  and  _344
REMARK  140  A    between atoms: _344  and  _345
REMARK  141  A    between atoms: _344  and  _347
REMARK  142  A    between atoms: _347  and  _348
REMARK  143  A    between atoms: _348  and  _349
REMARK  144  A    between atoms: _349  and  _350
REMARK  145  A    between atoms: _350  and  ZN_679
REMARK  146  A    between atoms: _352  and  _354
REMARK  147  A    between atoms: _354  and  _355
REMARK  148  A    between atoms: _354  and  _357
REMARK  149  A    between atoms: _357  and  _358
REMARK  150  A    between atoms: _361  and  _363
REMARK  151  A    between atoms: _363  and  _364
REMARK  152  A    between atoms: _363  and  _366
REMARK  153  A    between atoms: _369  and  _371
REMARK  154  A    between atoms: _371  and  _372
REMARK  155  A    between atoms: _371  and  _374
REMARK  156  A    between atoms: _374  and  _375
REMARK  157  A    between atoms: _375  and  _376
REMARK  158  A    between atoms: _379  and  _381
REMARK  159  A    between atoms: _381  and  _382
REMARK  160  A    between atoms: _381  and  _384
REMARK  161  A    between atoms: _384  and  _385
REMARK  162  A    between atoms: _385  and  _386
REMARK  163  A    between atoms: _389  and  _391
REMARK  164  A    between atoms: _391  and  _392
REMARK  165  A    between atoms: _391  and  _394
REMARK  166  A    between atoms: _394  and  _395
REMARK  167  A    between atoms: _398  and  _400
REMARK  168  A    between atoms: _400  and  _401
REMARK  169  A    between atoms: _400  and  _403
REMARK  170  A    between atoms: _403  and  _404
REMARK  171  A    between atoms: _409  and  _411
REMARK  172  A    between atoms: _411  and  _412
REMARK  173  A    between atoms: _411  and  _414
REMARK  174  A    between atoms: _414  and  _415
REMARK  175  A    between atoms: _417  and  _419
REMARK  176  A    between atoms: _419  and  _420
REMARK  177  A    between atoms: _419  and  _422
REMARK  178  A    between atoms: _422  and  _423
REMARK  179  A    between atoms: _423  and  _424
REMARK  180  A    between atoms: _426  and  _428
REMARK  181  A    between atoms: _428  and  _429
REMARK  182  A    between atoms: _432  and  _434
REMARK  183  A    between atoms: _434  and  _435
REMARK  184  A    between atoms: _434  and  _437
REMARK  185  A    between atoms: _437  and  _438
REMARK  186  A    between atoms: _443  and  _445
REMARK  187  A    between atoms: _445  and  _446
REMARK  188  A    between atoms: _445  and  _448
REMARK  189  A    between atoms: _448  and  _449
REMARK  190  A    between atoms: _455  and  _457
REMARK  191  A    between atoms: _457  and  _458
REMARK  192  A    between atoms: _457  and  _460
REMARK  193  A    between atoms: _460  and  _461
REMARK  194  A    between atoms: _466  and  _467
REMARK  195  A    between atoms: _469  and  _471
REMARK  196  A    between atoms: _471  and  _472
REMARK  197  A    between atoms: _471  and  _474
REMARK  198  A    between atoms: _474  and  _475
REMARK  199  A    between atoms: _478  and  _480
REMARK  200  A    between atoms: _480  and  _481
REMARK  201  A    between atoms: _480  and  _483
REMARK  202  A    between atoms: _483  and  _484
REMARK  203  A    between atoms: _487  and  _489
REMARK  204  A    between atoms: _489  and  _490
REMARK  205  A    between atoms: _489  and  _492
REMARK  206  A    between atoms: _492  and  _493
REMARK  207  A    between atoms: _496  and  _498
REMARK  208  A    between atoms: _498  and  _499
REMARK  209  A    between atoms: _498  and  _501
REMARK  210  A    between atoms: _501  and  _502
REMARK  211  A    between atoms: _507  and  _508
REMARK  212  A    between atoms: _510  and  _512
REMARK  213  A    between atoms: _512  and  _513
REMARK  214  A    between atoms: _512  and  _515
REMARK  215  A    between atoms: _515  and  _516
REMARK  216  A    between atoms: _519  and  _521
REMARK  217  A    between atoms: _521  and  _522
REMARK  218  A    between atoms: _521  and  _524
REMARK  219  A    between atoms: _524  and  _525
REMARK  220  A    between atoms: _525  and  _526
REMARK  221  A    between atoms: _526  and  _527
REMARK  222  A    between atoms: _536  and  _538
REMARK  223  A    between atoms: _538  and  _539
REMARK  224  A    between atoms: _538  and  _541
REMARK  225  A    between atoms: _541  and  _542
REMARK  226  A    between atoms: _548  and  _549
REMARK  227  A    between atoms: _554  and  _556
REMARK  228  A    between atoms: _556  and  _557
REMARK  229  A    between atoms: _556  and  _559
REMARK  230  A    between atoms: _559  and  _560
REMARK  231  A    between atoms: _560  and  _561
REMARK  232  A    between atoms: _563  and  _565
REMARK  233  A    between atoms: _565  and  _566
REMARK  234  A    between atoms: _565  and  _568
REMARK  235  A    between atoms: _571  and  _573
REMARK  236  A    between atoms: _573  and  _574
REMARK  237  A    between atoms: _577  and  _579
REMARK  238  A    between atoms: _579  and  _580
REMARK  239  A    between atoms: _579  and  _582
REMARK  240  A    between atoms: _582  and  _583
REMARK  241  A    between atoms: _586  and  _588
REMARK  242  A    between atoms: _588  and  _589
REMARK  243  A    between atoms: _588  and  _591
REMARK  244  A    between atoms: _591  and  _592
REMARK  245  A    between atoms: _592  and  _593
REMARK  246  A    between atoms: _598  and  _600
REMARK  247  A    between atoms: _600  and  _601
REMARK  248  A    between atoms: _600  and  _603
REMARK  249  A    between atoms: _603  and  _604
REMARK  250  A    between atoms: _607  and  _609
REMARK  251  A    between atoms: _609  and  _610
REMARK  252  A    between atoms: _609  and  _612
REMARK  253  A    between atoms: _614  and  _616
REMARK  254  A    between atoms: _616  and  _617
REMARK  255  A    between atoms: _616  and  _619
REMARK  256  A    between atoms: _619  and  _620
REMARK  257  A    between atoms: _620  and  _621
REMARK  258  A    between atoms: _624  and  _626
REMARK  259  A    between atoms: _626  and  _627
REMARK  260  A    between atoms: _626  and  _629
REMARK  261  A    between atoms: _629  and  _630
REMARK  262  A    between atoms: _630  and  _631
REMARK  263  A    between atoms: _631  and  _632
REMARK  264  A    between atoms: _632  and  _633
REMARK  265  A    between atoms: _637  and  _639
REMARK  266  A    between atoms: _639  and  _640
REMARK  267  A    between atoms: _639  and  _642
REMARK  268  A    between atoms: _642  and  _643
REMARK  269  A    between atoms: _648  and  _650
REMARK  270  A    between atoms: _650  and  _651
REMARK  271  A    between atoms: _650  and  _653
REMARK  272  A    between atoms: _653  and  _654
REMARK  273  A    between atoms: _659  and  _660
REMARK  274  A    between atoms: _662  and  _664
REMARK  275  A    between atoms: _664  and  _665
REMARK  276  A    between atoms: _664  and  _667
REMARK  277  A    between atoms: _667  and  _668
REMARK  278  A    between atoms: _668  and  _669
REMARK  279  A    between atoms: _669  and  _670
REMARK                            x       y       z     vdW  Elec       q    Type
REMARK                         _______ _______ _______ _____ _____    ______ ____
ROOT
ATOM      1  CA  LEU A   1       9.479  -6.025  21.192  0.00  0.00    +0.133 C 
ENDROOT
BRANCH   1   2
ATOM      2  N   LEU A   1       9.819  -7.390  21.611  0.00  0.00    -0.239 NA
ATOM      3  H   LEU A   1      10.755  -7.765  21.355  0.00  0.00    +0.142 HD
ENDBRANCH   1   2
BRANCH   1   4
ATOM      4  C   LEU A   1       8.652  -5.976  19.902  0.00  0.00    +0.224 C 
ATOM      5  O   LEU A   1       8.195  -4.888  19.515  0.00  0.00    -0.287 OA
ENDBRANCH   1   4
BRANCH   1   6
ATOM      6  CB  LEU A   1      10.753  -5.163  21.064  0.00  0.00    +0.025 C 
BRANCH   6   7
ATOM      7  CG  LEU A   1      11.551  -4.964  22.376  0.00  0.00    +0.002 C 
ATOM      8  CD2 LEU A   1      10.799  -4.067  23.370  0.00  0.00    +0.000 C 
ATOM      9  CD1 LEU A   1      12.926  -4.402  22.111  0.00  0.00    +0.000 C 
ENDBRANCH   6   7
ENDBRANCH   1   6
TORSDOF 4
REMARK  Name = ../refined-set-2016/3t8v/3t8v_pocket.pdb
REMARK  279 active torsions:
REMARK  status: ('A' for Active; 'I' for Inactive)
REMARK    1  A    between atoms: _1  and  _3
REMARK    2  A    between atoms: _3  and  _4
REMARK    3  A    between atoms: _7  and  _9
REMARK    4  A    between atoms: _9  and  _10
REMARK    5  A    between atoms: _9  and  _12
REMARK    6  A    between atoms: _12  and  _13
REMARK    7  A    between atoms: _16  and  _18
REMARK    8  A    between atoms: _18  and  _19
REMARK    9  A    between atoms: _18  and  _21
REMARK   10  A    between atoms: _21  and  _22
REMARK   11  A    between atoms: _25  and  _27
REMARK   12  A    between atoms: _27  and  _28
REMARK   13  A    between atoms: _27  and  _30
REMARK   14  A    between atoms: _30  and  _31
REMARK   15  A    between atoms: _31  and  _32
REMARK   16  A    between atoms: _37  and  _39
REMARK   17  A    between atoms: _39  and  _40
REMARK   18  A    between atoms: _39  and  _42
REMARK   19  A    between atoms: _44  and  _46
REMARK   20  A    between atoms: _46  and  _47
REMARK   21  A    between atoms: _46  and  _49
REMARK   22  A    between atoms: _49  and  _50
REMARK   23  A    between atoms: _50  and  _51
REMARK   24  A    between atoms: _54  and  _56
REMARK   25  A    between atoms: _56  and  _57
REMARK   26  A    between atoms: _60  and  _62
REMARK   27  A    between atoms: _62  and  _63
REMARK   28  A    between atoms: _62  and  _65
REMARK   29  A    between atoms: _65  and  _66
REMARK   30  A    between atoms: _69  and  _71
REMARK   31  A    between atoms: _71  and  _72
REMARK   32  A    between atoms: _74  and  _76
REMARK   33  A    between atoms: _76  and  _77
REMARK   34  A    between atoms: _76  and  _79
REMARK   35  A    between atoms: _79  and  _80
REMARK   36  A    between atoms: _85  and  _86
REMARK   37  A    between atoms: _88  and  _90
REMARK   38  A    between atoms: _90  and  _91
REMARK   39  A    between atoms: _90  and  _93
REMARK   40  A    between atoms: _93  and  _94
REMARK   41  A    between atoms: _100  and  _102
REMARK   42  A    between atoms: _102  and  _103
REMARK   43  A    between atoms: _102  and  _105
REMARK   44  A    between atoms: _105  and  _106
REMARK   45  A    between atoms: _111  and  _113
REMARK   46  A    between atoms: _113  and  _114
REMARK   47  A    between atoms: _113  and  _116
REMARK   48  A    between atoms: _119  and  _121
REMARK   49  A    between atoms: _121  and  _122
REMARK   50  A    between atoms: _124  and  _126
REMARK   51  A    between atoms: _126  and  _127
REMARK   52  A    between atoms: _130  and  _132
REMARK   53  A    between atoms: _132  and  _133
REMARK   54  A    between atoms: _132  and  _135
REMARK   55  A    between atoms: _135  and  _136
REMARK   56  A    between atoms: _136  and  _137
REMARK   57  A    between atoms: _139  and  _141
REMARK   58  A    between atoms: _141  and  _142
REMARK   59  A    between atoms: _141  and  _144
REMARK   60  A    between atoms: _144  and  _145
REMARK   61  A    between atoms: _145  and  _146
REMARK   62  A    between atoms: _149  and  _151
REMARK   63  A    between atoms: _151  and  _152
REMARK   64  A    between atoms: _151  and  _154
REMARK   65  A    between atoms: _154  and  _155
REMARK   66  A    between atoms: _160  and  _162
REMARK   67  A    between atoms: _162  and  _163
REMARK   68  A    between atoms: _162  and  _165
REMARK   69  A    between atoms: _165  and  _166
REMARK   70  A    between atoms: _169  and  _171
REMARK   71  A    between atoms: _171  and  _172
REMARK   72  A    between atoms: _171  and  _174
REMARK   73  A    between atoms: _174  and  _175
REMARK   74  A    between atoms: _181  and  _183
REMARK   75  A    between atoms: _183  and  _184
REMARK   76  A    between atoms: _183  and  _186
REMARK   77  A    between atoms: _186  and  _187
REMARK   78  A    between atoms: _192  and  _194
REMARK   79  A    between atoms: _194  and  _195
REMARK   80  A    between atoms: _194  and  _197
REMARK   81  A    between atoms: _197  and  _198
REMARK   82  A    between atoms: _203  and  _205
REMARK   83  A    between atoms: _205  and  _206
REMARK   84  A    between atoms: _205  and  _208
REMARK   85  A    between atoms: _208  and  _209
REMARK   86  A    between atoms: _211  and  _213
REMARK   87  A    between atoms: _213  and  _214
REMARK   88  A    between atoms: _213  and  _216
REMARK   89  A    between atoms: _216  and  _217
REMARK   90  A    between atoms: _217  and  _218
REMARK   91  A    between atoms: _218  and  _219
REMARK   92  A    between atoms: _228  and  _230
REMARK   93  A    between atoms: _230  and  _231
REMARK   94  A    between atoms: _230  and  _233
REMARK   95  A    between atoms: _233  and  _234
REMARK   96  A    between atoms: _237  and  _239
REMARK   97  A    between atoms: _239  and  _240
REMARK   98  A    between atoms: _239  and  _242
REMARK   99  A    between atoms: _245  and  _247
REMARK  100  A    between atoms: _247  and  _248
REMARK  101  A    between atoms: _247  and  _250
REMARK  102  A    between atoms: _253  and  _255
REMARK  103  A    between atoms: _255  and  _256
REMARK  104  A    between atoms: _258  and  _260
REMARK  105  A    between atoms: _260  and  _261
REMARK  106  A    between atoms: _260  and  _263
REMARK  107  A    between atoms: _263  and  _264
REMARK  108  A    between atoms: _268  and  ZN_679
REMARK  109  A    between atoms: _269  and  _271
REMARK  110  A    between atoms: _271  and  _272
REMARK  111  A    between atoms: _271  and  _274
REMARK  112  A    between atoms: _274  and  _275
REMARK  113  A    between atoms: _275  and  _276
REMARK  114  A    between atoms: _279  and  _281
REMARK  115  A    between atoms: _281  and  _282
REMARK  116  A    between atoms: _281  and  _284
REMARK  117  A    between atoms: _284  and  _285
REMARK  118  A    between atoms: _290  and  _291
REMARK  119  A    between atoms: _293  and  _295
REMARK  120  A    between atoms: _295  and  _296
REMARK  121  A    between atoms: _295  and  _298
REMARK  122  A    between atoms: _298  and  _299
REMARK  123  A    between atoms: _303  and  ZN_679
REMARK  124  A    between atoms: _304  and  _306
REMARK  125  A    between atoms: _306  and  _307
REMARK  126  A    between atoms: _306  and  _309
REMARK  127  A    between atoms: _309  and  _310
REMARK  128  A    between atoms: _320  and  _322
REMARK  129  A    between atoms: _322  and  _323
REMARK  130  A    between atoms: _322  and  _325
REMARK  131  A    between atoms: _325  and  _326
REMARK  132  A    between atoms: _329  and  _331
REMARK  133  A    between atoms: _331  and  _332
REMARK  134  A    between atoms: _331  and  _334
REMARK  135  A    between atoms: _334  and  _335
REMARK  136  A    between atoms: _335  and  _336
REMARK  137  A    between atoms: _336  and  _337
REMARK  138  A    between atoms: _337  and  _338
REMARK  139  A    between atoms: _342  and  _344
REMARK  140  A    between atoms: _344  and  _345
REMARK  141  A    between atoms: _344  and  _347
REMARK  142  A    between atoms: _347  and  _348
REMARK  143  A    between atoms: _348  and  _349
REMARK  144  A    between atoms: _349  and  _350
REMARK  145  A    between atoms: _350  and  ZN_679
REMARK  146  A    between atoms: _352  and  _354
REMARK  147  A    between atoms: _354  and  _355
REMARK  148  A    between atoms: _354  and  _357
REMARK  149  A    between atoms: _357  and  _358
REMARK  150  A    between atoms: _361  and  _363
REMARK  151  A    between atoms: _363  and  _364
REMARK  152  A    between atoms: _363  and  _366
REMARK  153  A    between atoms: _369  and  _371
REMARK  154  A    between atoms: _371  and  _372
REMARK  155  A    between atoms: _371  and  _374
REMARK  156  A    between atoms: _374  and  _375
REMARK  157  A    between atoms: _375  and  _376
REMARK  158  A    between atoms: _379  and  _381
REMARK  159  A    between atoms: _381  and  _382
REMARK  160  A    between atoms: _381  and  _384
REMARK  161  A    between atoms: _384  and  _385
REMARK  162  A    between atoms: _385  and  _386
REMARK  163  A    between atoms: _389  and  _391
REMARK  164  A    between atoms: _391  and  _392
REMARK  165  A    between atoms: _391  and  _394
REMARK  166  A    between atoms: _394  and  _395
REMARK  167  A    between atoms: _398  and  _400
REMARK  168  A    between atoms: _400  and  _401
REMARK  169  A    between atoms: _400  and  _403
REMARK  170  A    between atoms: _403  and  _404
REMARK  171  A    between atoms: _409  and  _411
REMARK  172  A    between atoms: _411  and  _412
REMARK  173  A    between atoms: _411  and  _414
REMARK  174  A    between atoms: _414  and  _415
REMARK  175  A    between atoms: _417  and  _419
REMARK  176  A    between atoms: _419  and  _420
REMARK  177  A    between atoms: _419  and  _422
REMARK  178  A    between atoms: _422  and  _423
REMARK  179  A    between atoms: _423  and  _424
REMARK  180  A    between atoms: _426  and  _428
REMARK  181  A    between atoms: _428  and  _429
REMARK  182  A    between atoms: _432  and  _434
REMARK  183  A    between atoms: _434  and  _435
REMARK  184  A    between atoms: _434  and  _437
REMARK  185  A    between atoms: _437  and  _438
REMARK  186  A    between atoms: _443  and  _445
REMARK  187  A    between atoms: _445  and  _446
REMARK  188  A    between atoms: _445  and  _448
REMARK  189  A    between atoms: _448  and  _449
REMARK  190  A    between atoms: _455  and  _457
REMARK  191  A    between atoms: _457  and  _458
REMARK  192  A    between atoms: _457  and  _460
REMARK  193  A    between atoms: _460  and  _461
REMARK  194  A    between atoms: _466  and  _467
REMARK  195  A    between atoms: _469  and  _471
REMARK  196  A    between atoms: _471  and  _472
REMARK  197  A    between atoms: _471  and  _474
REMARK  198  A    between atoms: _474  and  _475
REMARK  199  A    between atoms: _478  and  _480
REMARK  200  A    between atoms: _480  and  _481
REMARK  201  A    between atoms: _480  and  _483
REMARK  202  A    between atoms: _483  and  _484
REMARK  203  A    between atoms: _487  and  _489
REMARK  204  A    between atoms: _489  and  _490
REMARK  205  A    between atoms: _489  and  _492
REMARK  206  A    between atoms: _492  and  _493
REMARK  207  A    between atoms: _496  and  _498
REMARK  208  A    between atoms: _498  and  _499
REMARK  209  A    between atoms: _498  and  _501
REMARK  210  A    between atoms: _501  and  _502
REMARK  211  A    between atoms: _507  and  _508
REMARK  212  A    between atoms: _510  and  _512
REMARK  213  A    between atoms: _512  and  _513
REMARK  214  A    between atoms: _512  and  _515
REMARK  215  A    between atoms: _515  and  _516
REMARK  216  A    between atoms: _519  and  _521
REMARK  217  A    between atoms: _521  and  _522
REMARK  218  A    between atoms: _521  and  _524
REMARK  219  A    between atoms: _524  and  _525
REMARK  220  A    between atoms: _525  and  _526
REMARK  221  A    between atoms: _526  and  _527
REMARK  222  A    between atoms: _536  and  _538
REMARK  223  A    between atoms: _538  and  _539
REMARK  224  A    between atoms: _538  and  _541
REMARK  225  A    between atoms: _541  and  _542
REMARK  226  A    between atoms: _548  and  _549
REMARK  227  A    between atoms: _554  and  _556
REMARK  228  A    between atoms: _556  and  _557
REMARK  229  A    between atoms: _556  and  _559
REMARK  230  A    between atoms: _559  and  _560
REMARK  231  A    between atoms: _560  and  _561
REMARK  232  A    between atoms: _563  and  _565
REMARK  233  A    between atoms: _565  and  _566
REMARK  234  A    between atoms: _565  and  _568
REMARK  235  A    between atoms: _571  and  _573
REMARK  236  A    between atoms: _573  and  _574
REMARK  237  A    between atoms: _577  and  _579
REMARK  238  A    between atoms: _579  and  _580
REMARK  239  A    between atoms: _579  and  _582
REMARK  240  A    between atoms: _582  and  _583
REMARK  241  A    between atoms: _586  and  _588
REMARK  242  A    between atoms: _588  and  _589
REMARK  243  A    between atoms: _588  and  _591
REMARK  244  A    between atoms: _591  and  _592
REMARK  245  A    between atoms: _592  and  _593
REMARK  246  A    between atoms: _598  and  _600
REMARK  247  A    between atoms: _600  and  _601
REMARK  248  A    between atoms: _600  and  _603
REMARK  249  A    between atoms: _603  and  _604
REMARK  250  A    between atoms: _607  and  _609
REMARK  251  A    between atoms: _609  and  _610
REMARK  252  A    between atoms: _609  and  _612
REMARK  253  A    between atoms: _614  and  _616
REMARK  254  A    between atoms: _616  and  _617
REMARK  255  A    between atoms: _616  and  _619
REMARK  256  A    between atoms: _619  and  _620
REMARK  257  A    between atoms: _620  and  _621
REMARK  258  A    between atoms: _624  and  _626
REMARK  259  A    between atoms: _626  and  _627
REMARK  260  A    between atoms: _626  and  _629
REMARK  261  A    between atoms: _629  and  _630
REMARK  262  A    between atoms: _630  and  _631
REMARK  263  A    between atoms: _631  and  _632
REMARK  264  A    between atoms: _632  and  _633
REMARK  265  A    between atoms: _637  and  _639
REMARK  266  A    between atoms: _639  and  _640
REMARK  267  A    between atoms: _639  and  _642
REMARK  268  A    between atoms: _642  and  _643
REMARK  269  A    between atoms: _648  and  _650
REMARK  270  A    between atoms: _650  and  _651
REMARK  271  A    between atoms: _650  and  _653
REMARK  272  A    between atoms: _653  and  _654
REMARK  273  A    between atoms: _659  and  _660
REMARK  274  A    between atoms: _662  and  _664
REMARK  275  A    between atoms: _664  and  _665
REMARK  276  A    between atoms: _664  and  _667
REMARK  277  A    between atoms: _667  and  _668
REMARK  278  A    between atoms: _668  and  _669
REMARK  279  A    between atoms: _669  and  _670
REMARK                            x       y       z     vdW  Elec       q    Type
REMARK                         _______ _______ _______ _____ _____    ______ ____
ROOT
ATOM      1  CB  HIS A   1       5.181  -3.420  17.504  0.00  0.00    +0.072 C 
ENDROOT
BRANCH   1   2
ATOM      2  CG  HIS A   1       6.419  -2.656  17.089  0.00  0.00    +0.082 A 
ATOM      3  ND1 HIS A   1       7.664  -2.957  17.615  0.00  0.00    -0.227 NA
ATOM      4  CE1 HIS A   1       8.506  -2.091  17.078  0.00  0.00    +0.199 A 
ATOM      5  NE2 HIS A   1       7.877  -1.232  16.273  0.00  0.00    -0.221 NA
ATOM      6  CD2 HIS A   1       6.543  -1.577  16.275  0.00  0.00    +0.115 A 
ENDBRANCH   1   2
BRANCH   1   7
ATOM      7  CA  HIS A   1       4.966  -4.803  16.806  0.00  0.00    +0.139 C 
BRANCH   7   8
ATOM      8  N   HIS A   1       6.145  -5.624  16.968  0.00  0.00    -0.239 NA
ATOM      9  H   HIS A   1       6.868  -5.594  16.221  0.00  0.00    +0.142 HD
ENDBRANCH   7   8
BRANCH   7  10
ATOM     10  C   HIS A   1       4.642  -4.614  15.324  0.00  0.00    +0.224 C 
ATOM     11  O   HIS A   1       5.530  -4.779  14.477  0.00  0.00    -0.287 OA
ENDBRANCH   7  10
ENDBRANCH   1   7
TORSDOF 4
REMARK  Name = ../refined-set-2016/3t8v/3t8v_pocket.pdb
REMARK  279 active torsions:
REMARK  status: ('A' for Active; 'I' for Inactive)
REMARK    1  A    between atoms: _1  and  _3
REMARK    2  A    between atoms: _3  and  _4
REMARK    3  A    between atoms: _7  and  _9
REMARK    4  A    between atoms: _9  and  _10
REMARK    5  A    between atoms: _9  and  _12
REMARK    6  A    between atoms: _12  and  _13
REMARK    7  A    between atoms: _16  and  _18
REMARK    8  A    between atoms: _18  and  _19
REMARK    9  A    between atoms: _18  and  _21
REMARK   10  A    between atoms: _21  and  _22
REMARK   11  A    between atoms: _25  and  _27
REMARK   12  A    between atoms: _27  and  _28
REMARK   13  A    between atoms: _27  and  _30
REMARK   14  A    between atoms: _30  and  _31
REMARK   15  A    between atoms: _31  and  _32
REMARK   16  A    between atoms: _37  and  _39
REMARK   17  A    between atoms: _39  and  _40
REMARK   18  A    between atoms: _39  and  _42
REMARK   19  A    between atoms: _44  and  _46
REMARK   20  A    between atoms: _46  and  _47
REMARK   21  A    between atoms: _46  and  _49
REMARK   22  A    between atoms: _49  and  _50
REMARK   23  A    between atoms: _50  and  _51
REMARK   24  A    between atoms: _54  and  _56
REMARK   25  A    between atoms: _56  and  _57
REMARK   26  A    between atoms: _60  and  _62
REMARK   27  A    between atoms: _62  and  _63
REMARK   28  A    between atoms: _62  and  _65
REMARK   29  A    between atoms: _65  and  _66
REMARK   30  A    between atoms: _69  and  _71
REMARK   31  A    between atoms: _71  and  _72
REMARK   32  A    between atoms: _74  and  _76
REMARK   33  A    between atoms: _76  and  _77
REMARK   34  A    between atoms: _76  and  _79
REMARK   35  A    between atoms: _79  and  _80
REMARK   36  A    between atoms: _85  and  _86
REMARK   37  A    between atoms: _88  and  _90
REMARK   38  A    between atoms: _90  and  _91
REMARK   39  A    between atoms: _90  and  _93
REMARK   40  A    between atoms: _93  and  _94
REMARK   41  A    between atoms: _100  and  _102
REMARK   42  A    between atoms: _102  and  _103
REMARK   43  A    between atoms: _102  and  _105
REMARK   44  A    between atoms: _105  and  _106
REMARK   45  A    between atoms: _111  and  _113
REMARK   46  A    between atoms: _113  and  _114
REMARK   47  A    between atoms: _113  and  _116
REMARK   48  A    between atoms: _119  and  _121
REMARK   49  A    between atoms: _121  and  _122
REMARK   50  A    between atoms: _124  and  _126
REMARK   51  A    between atoms: _126  and  _127
REMARK   52  A    between atoms: _130  and  _132
REMARK   53  A    between atoms: _132  and  _133
REMARK   54  A    between atoms: _132  and  _135
REMARK   55  A    between atoms: _135  and  _136
REMARK   56  A    between atoms: _136  and  _137
REMARK   57  A    between atoms: _139  and  _141
REMARK   58  A    between atoms: _141  and  _142
REMARK   59  A    between atoms: _141  and  _144
REMARK   60  A    between atoms: _144  and  _145
REMARK   61  A    between atoms: _145  and  _146
REMARK   62  A    between atoms: _149  and  _151
REMARK   63  A    between atoms: _151  and  _152
REMARK   64  A    between atoms: _151  and  _154
REMARK   65  A    between atoms: _154  and  _155
REMARK   66  A    between atoms: _160  and  _162
REMARK   67  A    between atoms: _162  and  _163
REMARK   68  A    between atoms: _162  and  _165
REMARK   69  A    between atoms: _165  and  _166
REMARK   70  A    between atoms: _169  and  _171
REMARK   71  A    between atoms: _171  and  _172
REMARK   72  A    between atoms: _171  and  _174
REMARK   73  A    between atoms: _174  and  _175
REMARK   74  A    between atoms: _181  and  _183
REMARK   75  A    between atoms: _183  and  _184
REMARK   76  A    between atoms: _183  and  _186
REMARK   77  A    between atoms: _186  and  _187
REMARK   78  A    between atoms: _192  and  _194
REMARK   79  A    between atoms: _194  and  _195
REMARK   80  A    between atoms: _194  and  _197
REMARK   81  A    between atoms: _197  and  _198
REMARK   82  A    between atoms: _203  and  _205
REMARK   83  A    between atoms: _205  and  _206
REMARK   84  A    between atoms: _205  and  _208
REMARK   85  A    between atoms: _208  and  _209
REMARK   86  A    between atoms: _211  and  _213
REMARK   87  A    between atoms: _213  and  _214
REMARK   88  A    between atoms: _213  and  _216
REMARK   89  A    between atoms: _216  and  _217
REMARK   90  A    between atoms: _217  and  _218
REMARK   91  A    between atoms: _218  and  _219
REMARK   92  A    between atoms: _228  and  _230
REMARK   93  A    between atoms: _230  and  _231
REMARK   94  A    between atoms: _230  and  _233
REMARK   95  A    between atoms: _233  and  _234
REMARK   96  A    between atoms: _237  and  _239
REMARK   97  A    between atoms: _239  and  _240
REMARK   98  A    between atoms: _239  and  _242
REMARK   99  A    between atoms: _245  and  _247
REMARK  100  A    between atoms: _247  and  _248
REMARK  101  A    between atoms: _247  and  _250
REMARK  102  A    between atoms: _253  and  _255
REMARK  103  A    between atoms: _255  and  _256
REMARK  104  A    between atoms: _258  and  _260
REMARK  105  A    between atoms: _260  and  _261
REMARK  106  A    between atoms: _260  and  _263
REMARK  107  A    between atoms: _263  and  _264
REMARK  108  A    between atoms: _268  and  ZN_679
REMARK  109  A    between atoms: _269  and  _271
REMARK  110  A    between atoms: _271  and  _272
REMARK  111  A    between atoms: _271  and  _274
REMARK  112  A    between atoms: _274  and  _275
REMARK  113  A    between atoms: _275  and  _276
REMARK  114  A    between atoms: _279  and  _281
REMARK  115  A    between atoms: _281  and  _282
REMARK  116  A    between atoms: _281  and  _284
REMARK  117  A    between atoms: _284  and  _285
REMARK  118  A    between atoms: _290  and  _291
REMARK  119  A    between atoms: _293  and  _295
REMARK  120  A    between atoms: _295  and  _296
REMARK  121  A    between atoms: _295  and  _298
REMARK  122  A    between atoms: _298  and  _299
REMARK  123  A    between atoms: _303  and  ZN_679
REMARK  124  A    between atoms: _304  and  _306
REMARK  125  A    between atoms: _306  and  _307
REMARK  126  A    between atoms: _306  and  _309
REMARK  127  A    between atoms: _309  and  _310
REMARK  128  A    between atoms: _320  and  _322
REMARK  129  A    between atoms: _322  and  _323
REMARK  130  A    between atoms: _322  and  _325
REMARK  131  A    between atoms: _325  and  _326
REMARK  132  A    between atoms: _329  and  _331
REMARK  133  A    between atoms: _331  and  _332
REMARK  134  A    between atoms: _331  and  _334
REMARK  135  A    between atoms: _334  and  _335
REMARK  136  A    between atoms: _335  and  _336
REMARK  137  A    between atoms: _336  and  _337
REMARK  138  A    between atoms: _337  and  _338
REMARK  139  A    between atoms: _342  and  _344
REMARK  140  A    between atoms: _344  and  _345
REMARK  141  A    between atoms: _344  and  _347
REMARK  142  A    between atoms: _347  and  _348
REMARK  143  A    between atoms: _348  and  _349
REMARK  144  A    between atoms: _349  and  _350
REMARK  145  A    between atoms: _350  and  ZN_679
REMARK  146  A    between atoms: _352  and  _354
REMARK  147  A    between atoms: _354  and  _355
REMARK  148  A    between atoms: _354  and  _357
REMARK  149  A    between atoms: _357  and  _358
REMARK  150  A    between atoms: _361  and  _363
REMARK  151  A    between atoms: _363  and  _364
REMARK  152  A    between atoms: _363  and  _366
REMARK  153  A    between atoms: _369  and  _371
REMARK  154  A    between atoms: _371  and  _372
REMARK  155  A    between atoms: _371  and  _374
REMARK  156  A    between atoms: _374  and  _375
REMARK  157  A    between atoms: _375  and  _376
REMARK  158  A    between atoms: _379  and  _381
REMARK  159  A    between atoms: _381  and  _382
REMARK  160  A    between atoms: _381  and  _384
REMARK  161  A    between atoms: _384  and  _385
REMARK  162  A    between atoms: _385  and  _386
REMARK  163  A    between atoms: _389  and  _391
REMARK  164  A    between atoms: _391  and  _392
REMARK  165  A    between atoms: _391  and  _394
REMARK  166  A    between atoms: _394  and  _395
REMARK  167  A    between atoms: _398  and  _400
REMARK  168  A    between atoms: _400  and  _401
REMARK  169  A    between atoms: _400  and  _403
REMARK  170  A    between atoms: _403  and  _404
REMARK  171  A    between atoms: _409  and  _411
REMARK  172  A    between atoms: _411  and  _412
REMARK  173  A    between atoms: _411  and  _414
REMARK  174  A    between atoms: _414  and  _415
REMARK  175  A    between atoms: _417  and  _419
REMARK  176  A    between atoms: _419  and  _420
REMARK  177  A    between atoms: _419  and  _422
REMARK  178  A    between atoms: _422  and  _423
REMARK  179  A    between atoms: _423  and  _424
REMARK  180  A    between atoms: _426  and  _428
REMARK  181  A    between atoms: _428  and  _429
REMARK  182  A    between atoms: _432  and  _434
REMARK  183  A    between atoms: _434  and  _435
REMARK  184  A    between atoms: _434  and  _437
REMARK  185  A    between atoms: _437  and  _438
REMARK  186  A    between atoms: _443  and  _445
REMARK  187  A    between atoms: _445  and  _446
REMARK  188  A    between atoms: _445  and  _448
REMARK  189  A    between atoms: _448  and  _449
REMARK  190  A    between atoms: _455  and  _457
REMARK  191  A    between atoms: _457  and  _458
REMARK  192  A    between atoms: _457  and  _460
REMARK  193  A    between atoms: _460  and  _461
REMARK  194  A    between atoms: _466  and  _467
REMARK  195  A    between atoms: _469  and  _471
REMARK  196  A    between atoms: _471  and  _472
REMARK  197  A    between atoms: _471  and  _474
REMARK  198  A    between atoms: _474  and  _475
REMARK  199  A    between atoms: _478  and  _480
REMARK  200  A    between atoms: _480  and  _481
REMARK  201  A    between atoms: _480  and  _483
REMARK  202  A    between atoms: _483  and  _484
REMARK  203  A    between atoms: _487  and  _489
REMARK  204  A    between atoms: _489  and  _490
REMARK  205  A    between atoms: _489  and  _492
REMARK  206  A    between atoms: _492  and  _493
REMARK  207  A    between atoms: _496  and  _498
REMARK  208  A    between atoms: _498  and  _499
REMARK  209  A    between atoms: _498  and  _501
REMARK  210  A    between atoms: _501  and  _502
REMARK  211  A    between atoms: _507  and  _508
REMARK  212  A    between atoms: _510  and  _512
REMARK  213  A    between atoms: _512  and  _513
REMARK  214  A    between atoms: _512  and  _515
REMARK  215  A    between atoms: _515  and  _516
REMARK  216  A    between atoms: _519  and  _521
REMARK  217  A    between atoms: _521  and  _522
REMARK  218  A    between atoms: _521  and  _524
REMARK  219  A    between atoms: _524  and  _525
REMARK  220  A    between atoms: _525  and  _526
REMARK  221  A    between atoms: _526  and  _527
REMARK  222  A    between atoms: _536  and  _538
REMARK  223  A    between atoms: _538  and  _539
REMARK  224  A    between atoms: _538  and  _541
REMARK  225  A    between atoms: _541  and  _542
REMARK  226  A    between atoms: _548  and  _549
REMARK  227  A    between atoms: _554  and  _556
REMARK  228  A    between atoms: _556  and  _557
REMARK  229  A    between atoms: _556  and  _559
REMARK  230  A    between atoms: _559  and  _560
REMARK  231  A    between atoms: _560  and  _561
REMARK  232  A    between atoms: _563  and  _565
REMARK  233  A    between atoms: _565  and  _566
REMARK  234  A    between atoms: _565  and  _568
REMARK  235  A    between atoms: _571  and  _573
REMARK  236  A    between atoms: _573  and  _574
REMARK  237  A    between atoms: _577  and  _579
REMARK  238  A    between atoms: _579  and  _580
REMARK  239  A    between atoms: _579  and  _582
REMARK  240  A    between atoms: _582  and  _583
REMARK  241  A    between atoms: _586  and  _588
REMARK  242  A    between atoms: _588  and  _589
REMARK  243  A    between atoms: _588  and  _591
REMARK  244  A    between atoms: _591  and  _592
REMARK  245  A    between atoms: _592  and  _593
REMARK  246  A    between atoms: _598  and  _600
REMARK  247  A    between atoms: _600  and  _601
REMARK  248  A    between atoms: _600  and  _603
REMARK  249  A    between atoms: _603  and  _604
REMARK  250  A    between atoms: _607  and  _609
REMARK  251  A    between atoms: _609  and  _610
REMARK  252  A    between atoms: _609  and  _612
REMARK  253  A    between atoms: _614  and  _616
REMARK  254  A    between atoms: _616  and  _617
REMARK  255  A    between atoms: _616  and  _619
REMARK  256  A    between atoms: _619  and  _620
REMARK  257  A    between atoms: _620  and  _621
REMARK  258  A    between atoms: _624  and  _626
REMARK  259  A    between atoms: _626  and  _627
REMARK  260  A    between atoms: _626  and  _629
REMARK  261  A    between atoms: _629  and  _630
REMARK  262  A    between atoms: _630  and  _631
REMARK  263  A    between atoms: _631  and  _632
REMARK  264  A    between atoms: _632  and  _633
REMARK  265  A    between atoms: _637  and  _639
REMARK  266  A    between atoms: _639  and  _640
REMARK  267  A    between atoms: _639  and  _642
REMARK  268  A    between atoms: _642  and  _643
REMARK  269  A    between atoms: _648  and  _650
REMARK  270  A    between atoms: _650  and  _651
REMARK  271  A    between atoms: _650  and  _653
REMARK  272  A    between atoms: _653  and  _654
REMARK  273  A    between atoms: _659  and  _660
REMARK  274  A    between atoms: _662  and  _664
REMARK  275  A    between atoms: _664  and  _665
REMARK  276  A    between atoms: _664  and  _667
REMARK  277  A    between atoms: _667  and  _668
REMARK  278  A    between atoms: _668  and  _669
REMARK  279  A    between atoms: _669  and  _670
REMARK                            x       y       z     vdW  Elec       q    Type
REMARK                         _______ _______ _______ _____ _____    ______ ____
ROOT
ATOM      1  CA  PHE A   5       7.659   3.847  18.465  0.00  0.00    +0.153 C 
ENDROOT
BRANCH   1   2
ATOM      2  C   PHE A   5       8.589   4.145  17.261  0.00  0.00    +0.241 C 
ATOM      3  N   TYR A   6       9.700   4.856  17.499  0.00  0.00    -0.297 N 
ATOM      4  H   TYR A   6       9.913   5.153  18.473  0.00  0.00    +0.150 HD
ATOM      5  O   PHE A   5       8.256   3.812  16.118  0.00  0.00    -0.273 OA
BRANCH   3   6
ATOM      6  CA  TYR A   6      10.623   5.226  16.422  0.00  0.00    +0.153 C 
BRANCH   6   7
ATOM      7  C   TYR A   6      11.586   4.064  16.247  0.00  0.00    +0.241 C 
ATOM      8  O   TYR A   6      12.677   4.041  16.820  0.00  0.00    -0.273 OA
ATOM      9  N   THR A   7      11.128   3.045  15.500  0.00  0.00    -0.295 N 
ATOM     10  H   THR A   7      10.237   3.159  14.976  0.00  0.00    +0.150 HD
BRANCH   9  11
ATOM     11  CA  THR A   7      11.853   1.781  15.407  0.00  0.00    +0.176 C 
BRANCH  11  12
ATOM     12  C   THR A   7      12.182   1.387  13.988  0.00  0.00    +0.243 C 
ATOM     13  N   THR A   8      13.081   0.399  13.851  0.00  0.00    -0.295 N 
ATOM     14  H   THR A   8      13.564   0.034  14.697  0.00  0.00    +0.150 HD
ATOM     15  O   THR A   7      11.568   1.888  13.041  0.00  0.00    -0.273 OA
BRANCH  13  16
ATOM     16  CA  THR A   8      13.399  -0.178  12.547  0.00  0.00    +0.176 C 
BRANCH  16  17
ATOM     17  C   THR A   8      12.146  -0.821  11.922  0.00  0.00    +0.243 C 
ATOM     18  N   THR A   9      11.192  -1.333  12.734  0.00  0.00    -0.296 N 
ATOM     19  H   THR A   9      11.334  -1.341  13.764  0.00  0.00    +0.150 HD
ATOM     20  O   THR A   8      12.057  -0.865  10.704  0.00  0.00    -0.273 OA
BRANCH  18  21
ATOM     21  CA  THR A   9       9.950  -1.879  12.155  0.00  0.00    +0.164 C 
BRANCH  21  22
ATOM     22  C   THR A   9       9.174  -0.703  11.492  0.00  0.00    +0.229 C 
ATOM     23  O   THR A   9       8.855  -0.745  10.306  0.00  0.00    -0.286 OA
ENDBRANCH  21  22
BRANCH  21  24
ATOM     24  CB  THR A   9       9.127  -2.580  13.256  0.00  0.00    +0.136 C 
ATOM     25  CG2 THR A   9       7.713  -2.952  12.807  0.00  0.00    +0.034 C 
BRANCH  24  26
ATOM     26  OG1 THR A   9       9.848  -3.723  13.716  0.00  0.00    -0.382 OA
ATOM     27  HG1 THR A   9      10.721  -3.435  14.083  0.00  0.00    +0.210 HD
ENDBRANCH  24  26
ENDBRANCH  21  24
ENDBRANCH  18  21
ENDBRANCH  16  17
BRANCH  16  28
ATOM     28  CB  THR A   8      14.599  -1.144  12.617  0.00  0.00    +0.137 C 
ATOM     29  CG2 THR A   8      14.348  -2.352  13.533  0.00  0.00    +0.034 C 
BRANCH  28  30
ATOM     30  OG1 THR A   8      14.882  -1.565  11.291  0.00  0.00    -0.382 OA
ATOM     31  HG1 THR A   8      15.103  -0.776  10.736  0.00  0.00    +0.210 HD
ENDBRANCH  28  30
ENDBRANCH  16  28
ENDBRANCH  13  16
ENDBRANCH  11  12
BRANCH  11  32
ATOM     32  CB  THR A   7      10.960   0.649  15.996  0.00  0.00    +0.137 C 
ATOM     33  CG2 THR A   7      10.624   0.858  17.494  0.00  0.00    +0.034 C 
BRANCH  32  34
ATOM     34  OG1 THR A   7       9.753   0.576  15.239  0.00  0.00    -0.382 OA
ATOM     35  HG1 THR A   7       9.178  -0.141  15.606  0.00  0.00    +0.210 HD
ENDBRANCH  32  34
ENDBRANCH  11  32
ENDBRANCH   9  11
ENDBRANCH   6   7
BRANCH   6  36
ATOM     36  CB  TYR A   6      11.322   6.556  16.726  0.00  0.00    +0.055 C 
BRANCH  36  37
ATOM     37  CG  TYR A   6      10.377   7.732  16.633  0.00  0.00    -0.020 A 
ATOM     38  CD2 TYR A   6       9.502   8.030  17.674  0.00  0.00    -0.001 A 
ATOM     39  CE2 TYR A   6       8.641   9.120  17.605  0.00  0.00    +0.036 A 
ATOM     40  CZ  TYR A   6       8.642   9.927  16.480  0.00  0.00    +0.134 A 
ATOM     41  CE1 TYR A   6       9.492   9.638  15.419  0.00  0.00    +0.036 A 
ATOM     42  CD1 TYR A   6      10.355   8.546  15.504  0.00  0.00    -0.001 A 
BRANCH  40  43
ATOM     43  OH  TYR A   6       7.764  10.978  16.404  0.00  0.00    -0.506 OA
ATOM     44  HH  TYR A   6       8.269  11.819  16.272  0.00  0.00    +0.292 HD
ENDBRANCH  40  43
ENDBRANCH  36  37
ENDBRANCH   6  36
ENDBRANCH   3   6
ENDBRANCH   1   2
BRANCH   1  47
ATOM     45  C   ASN A   4       9.176   3.331  20.498  0.00  0.00    +0.241 C 
ATOM     46  O   ASN A   4       9.409   2.155  20.201  0.00  0.00    -0.273 OA
ATOM     47  N   PHE A   5       8.368   4.155  19.739  0.00  0.00    -0.297 N 
ATOM     48  H   PHE A   5       8.237   5.119  20.106  0.00  0.00    +0.150 HD
BRANCH  45  49
ATOM     49  CA  ASN A   4       9.855   3.942  21.768  0.00  0.00    +0.158 C 
BRANCH  49  51
ATOM     50  C   ALA A   3      10.119   6.355  21.371  0.00  0.00    +0.241 C 
ATOM     51  N   ASN A   4       9.501   5.338  22.006  0.00  0.00    -0.297 N 
ATOM     52  H   ASN A   4       8.747   5.556  22.688  0.00  0.00    +0.150 HD
ATOM     53  O   ALA A   3      11.018   6.175  20.545  0.00  0.00    -0.273 OA
BRANCH  50  54
ATOM     54  CA  ALA A   3       9.654   7.796  21.687  0.00  0.00    +0.149 C 
ATOM     55  CB  ALA A   3      10.590   8.441  22.697  0.00  0.00    +0.031 C 
BRANCH  54  57
ATOM     56  C   MET A   2       7.204   7.413  21.536  0.00  0.00    +0.241 C 
ATOM     57  N   ALA A   3       8.279   7.878  22.174  0.00  0.00    -0.297 N 
ATOM     58  H   ALA A   3       8.126   8.337  23.095  0.00  0.00    +0.150 HD
ATOM     59  O   MET A   2       7.266   6.830  20.457  0.00  0.00    -0.273 OA
BRANCH  56  60
ATOM     60  CA  MET A   2       5.845   7.592  22.225  0.00  0.00    +0.149 C 
BRANCH  60  62
ATOM     61  C   SER A   1       6.312   6.111  24.190  0.00  0.00    +0.241 C 
ATOM     62  N   MET A   2       5.915   7.285  23.658  0.00  0.00    -0.297 N 
ATOM     63  H   MET A   2       5.635   8.037  24.320  0.00  0.00    +0.150 HD
ATOM     64  O   SER A   1       6.637   5.134  23.514  0.00  0.00    -0.274 OA
BRANCH  61  65
ATOM     65  CA  SER A   1       6.286   6.010  25.718  0.00  0.00    +0.174 C 
BRANCH  65  66
ATOM     66  N   SER A   1       5.250   5.051  26.097  0.00  0.00    -0.236 NA
ATOM     67  H   SER A   1       5.439   4.047  25.903  0.00  0.00    +0.142 HD
ENDBRANCH  65  66
BRANCH  65  68
ATOM     68  CB  SER A   1       7.643   5.559  26.258  0.00  0.00    +0.163 C 
BRANCH  68  69
ATOM     69  OG  SER A   1       8.700   6.392  25.814  0.00  0.00    -0.380 OA
ATOM     70  H   SER A   1       9.556   6.064  26.187  0.00  0.00    +0.211 HD
ENDBRANCH  68  69
ENDBRANCH  65  68
ENDBRANCH  61  65
ENDBRANCH  60  62
BRANCH  60  71
ATOM     71  CB  MET A   2       5.274   9.021  22.006  0.00  0.00    +0.041 C 
BRANCH  71  72
ATOM     72  CG  MET A   2       5.106   9.415  20.551  0.00  0.00    +0.060 C 
BRANCH  72  73
ATOM     73  SD  MET A   2       4.464   8.061  19.522  0.00  0.00    -0.139 S 
ATOM     74  CE  MET A   2       5.316   8.414  18.002  0.00  0.00    +0.069 C 
ENDBRANCH  72  73
ENDBRANCH  71  72
ENDBRANCH  60  71
ENDBRANCH  56  60
ENDBRANCH  54  57
ENDBRANCH  50  54
ENDBRANCH  49  51
BRANCH  49  75
ATOM     75  CB  ASN A   4       9.684   3.097  23.058  0.00  0.00    +0.114 C 
BRANCH  75  76
ATOM     76  CG  ASN A   4      10.637   3.449  24.205  0.00  0.00    +0.222 C 
ATOM     77  ND2 ASN A   4      10.274   3.067  25.419  0.00  0.00    -0.329 N 
ATOM     78 HD21 ASN A   4      10.880   3.285  26.236  0.00  0.00    +0.145 HD
ATOM     79 HD22 ASN A   4       9.383   2.549  25.556  0.00  0.00    +0.145 HD
ATOM     80  OD1 ASN A   4      11.699   4.067  24.035  0.00  0.00    -0.275 OA
ENDBRANCH  75  76
ENDBRANCH  49  75
ENDBRANCH  45  49
ENDBRANCH   1  47
BRANCH   1  81
ATOM     81  CB  PHE A   5       6.467   4.817  18.299  0.00  0.00    +0.055 C 
BRANCH  81  82
ATOM     82  CG  PHE A   5       5.033   4.346  18.380  0.00  0.00    -0.020 A 
ATOM     83  CD2 PHE A   5       4.644   3.397  19.319  0.00  0.00    -0.004 A 
ATOM     84  CE2 PHE A   5       3.309   2.998  19.421  0.00  0.00    -0.000 A 
ATOM     85  CZ  PHE A   5       2.346   3.598  18.634  0.00  0.00    -0.000 A 
ATOM     86  CE1 PHE A   5       2.711   4.546  17.707  0.00  0.00    -0.000 A 
ATOM     87  CD1 PHE A   5       4.052   4.931  17.589  0.00  0.00    -0.004 A 
ENDBRANCH  81  82
ENDBRANCH   1  81
TORSDOF 36
REMARK  Name = ../refined-set-2016/3t8v/3t8v_pocket.pdb
REMARK  279 active torsions:
REMARK  status: ('A' for Active; 'I' for Inactive)
REMARK    1  A    between atoms: _1  and  _3
REMARK    2  A    between atoms: _3  and  _4
REMARK    3  A    between atoms: _7  and  _9
REMARK    4  A    between atoms: _9  and  _10
REMARK    5  A    between atoms: _9  and  _12
REMARK    6  A    between atoms: _12  and  _13
REMARK    7  A    between atoms: _16  and  _18
REMARK    8  A    between atoms: _18  and  _19
REMARK    9  A    between atoms: _18  and  _21
REMARK   10  A    between atoms: _21  and  _22
REMARK   11  A    between atoms: _25  and  _27
REMARK   12  A    between atoms: _27  and  _28
REMARK   13  A    between atoms: _27  and  _30
REMARK   14  A    between atoms: _30  and  _31
REMARK   15  A    between atoms: _31  and  _32
REMARK   16  A    between atoms: _37  and  _39
REMARK   17  A    between atoms: _39  and  _40
REMARK   18  A    between atoms: _39  and  _42
REMARK   19  A    between atoms: _44  and  _46
REMARK   20  A    between atoms: _46  and  _47
REMARK   21  A    between atoms: _46  and  _49
REMARK   22  A    between atoms: _49  and  _50
REMARK   23  A    between atoms: _50  and  _51
REMARK   24  A    between atoms: _54  and  _56
REMARK   25  A    between atoms: _56  and  _57
REMARK   26  A    between atoms: _60  and  _62
REMARK   27  A    between atoms: _62  and  _63
REMARK   28  A    between atoms: _62  and  _65
REMARK   29  A    between atoms: _65  and  _66
REMARK   30  A    between atoms: _69  and  _71
REMARK   31  A    between atoms: _71  and  _72
REMARK   32  A    between atoms: _74  and  _76
REMARK   33  A    between atoms: _76  and  _77
REMARK   34  A    between atoms: _76  and  _79
REMARK   35  A    between atoms: _79  and  _80
REMARK   36  A    between atoms: _85  and  _86
REMARK   37  A    between atoms: _88  and  _90
REMARK   38  A    between atoms: _90  and  _91
REMARK   39  A    between atoms: _90  and  _93
REMARK   40  A    between atoms: _93  and  _94
REMARK   41  A    between atoms: _100  and  _102
REMARK   42  A    between atoms: _102  and  _103
REMARK   43  A    between atoms: _102  and  _105
REMARK   44  A    between atoms: _105  and  _106
REMARK   45  A    between atoms: _111  and  _113
REMARK   46  A    between atoms: _113  and  _114
REMARK   47  A    between atoms: _113  and  _116
REMARK   48  A    between atoms: _119  and  _121
REMARK   49  A    between atoms: _121  and  _122
REMARK   50  A    between atoms: _124  and  _126
REMARK   51  A    between atoms: _126  and  _127
REMARK   52  A    between atoms: _130  and  _132
REMARK   53  A    between atoms: _132  and  _133
REMARK   54  A    between atoms: _132  and  _135
REMARK   55  A    between atoms: _135  and  _136
REMARK   56  A    between atoms: _136  and  _137
REMARK   57  A    between atoms: _139  and  _141
REMARK   58  A    between atoms: _141  and  _142
REMARK   59  A    between atoms: _141  and  _144
REMARK   60  A    between atoms: _144  and  _145
REMARK   61  A    between atoms: _145  and  _146
REMARK   62  A    between atoms: _149  and  _151
REMARK   63  A    between atoms: _151  and  _152
REMARK   64  A    between atoms: _151  and  _154
REMARK   65  A    between atoms: _154  and  _155
REMARK   66  A    between atoms: _160  and  _162
REMARK   67  A    between atoms: _162  and  _163
REMARK   68  A    between atoms: _162  and  _165
REMARK   69  A    between atoms: _165  and  _166
REMARK   70  A    between atoms: _169  and  _171
REMARK   71  A    between atoms: _171  and  _172
REMARK   72  A    between atoms: _171  and  _174
REMARK   73  A    between atoms: _174  and  _175
REMARK   74  A    between atoms: _181  and  _183
REMARK   75  A    between atoms: _183  and  _184
REMARK   76  A    between atoms: _183  and  _186
REMARK   77  A    between atoms: _186  and  _187
REMARK   78  A    between atoms: _192  and  _194
REMARK   79  A    between atoms: _194  and  _195
REMARK   80  A    between atoms: _194  and  _197
REMARK   81  A    between atoms: _197  and  _198
REMARK   82  A    between atoms: _203  and  _205
REMARK   83  A    between atoms: _205  and  _206
REMARK   84  A    between atoms: _205  and  _208
REMARK   85  A    between atoms: _208  and  _209
REMARK   86  A    between atoms: _211  and  _213
REMARK   87  A    between atoms: _213  and  _214
REMARK   88  A    between atoms: _213  and  _216
REMARK   89  A    between atoms: _216  and  _217
REMARK   90  A    between atoms: _217  and  _218
REMARK   91  A    between atoms: _218  and  _219
REMARK   92  A    between atoms: _228  and  _230
REMARK   93  A    between atoms: _230  and  _231
REMARK   94  A    between atoms: _230  and  _233
REMARK   95  A    between atoms: _233  and  _234
REMARK   96  A    between atoms: _237  and  _239
REMARK   97  A    between atoms: _239  and  _240
REMARK   98  A    between atoms: _239  and  _242
REMARK   99  A    between atoms: _245  and  _247
REMARK  100  A    between atoms: _247  and  _248
REMARK  101  A    between atoms: _247  and  _250
REMARK  102  A    between atoms: _253  and  _255
REMARK  103  A    between atoms: _255  and  _256
REMARK  104  A    between atoms: _258  and  _260
REMARK  105  A    between atoms: _260  and  _261
REMARK  106  A    between atoms: _260  and  _263
REMARK  107  A    between atoms: _263  and  _264
REMARK  108  A    between atoms: _268  and  ZN_679
REMARK  109  A    between atoms: _269  and  _271
REMARK  110  A    between atoms: _271  and  _272
REMARK  111  A    between atoms: _271  and  _274
REMARK  112  A    between atoms: _274  and  _275
REMARK  113  A    between atoms: _275  and  _276
REMARK  114  A    between atoms: _279  and  _281
REMARK  115  A    between atoms: _281  and  _282
REMARK  116  A    between atoms: _281  and  _284
REMARK  117  A    between atoms: _284  and  _285
REMARK  118  A    between atoms: _290  and  _291
REMARK  119  A    between atoms: _293  and  _295
REMARK  120  A    between atoms: _295  and  _296
REMARK  121  A    between atoms: _295  and  _298
REMARK  122  A    between atoms: _298  and  _299
REMARK  123  A    between atoms: _303  and  ZN_679
REMARK  124  A    between atoms: _304  and  _306
REMARK  125  A    between atoms: _306  and  _307
REMARK  126  A    between atoms: _306  and  _309
REMARK  127  A    between atoms: _309  and  _310
REMARK  128  A    between atoms: _320  and  _322
REMARK  129  A    between atoms: _322  and  _323
REMARK  130  A    between atoms: _322  and  _325
REMARK  131  A    between atoms: _325  and  _326
REMARK  132  A    between atoms: _329  and  _331
REMARK  133  A    between atoms: _331  and  _332
REMARK  134  A    between atoms: _331  and  _334
REMARK  135  A    between atoms: _334  and  _335
REMARK  136  A    between atoms: _335  and  _336
REMARK  137  A    between atoms: _336  and  _337
REMARK  138  A    between atoms: _337  and  _338
REMARK  139  A    between atoms: _342  and  _344
REMARK  140  A    between atoms: _344  and  _345
REMARK  141  A    between atoms: _344  and  _347
REMARK  142  A    between atoms: _347  and  _348
REMARK  143  A    between atoms: _348  and  _349
REMARK  144  A    between atoms: _349  and  _350
REMARK  145  A    between atoms: _350  and  ZN_679
REMARK  146  A    between atoms: _352  and  _354
REMARK  147  A    between atoms: _354  and  _355
REMARK  148  A    between atoms: _354  and  _357
REMARK  149  A    between atoms: _357  and  _358
REMARK  150  A    between atoms: _361  and  _363
REMARK  151  A    between atoms: _363  and  _364
REMARK  152  A    between atoms: _363  and  _366
REMARK  153  A    between atoms: _369  and  _371
REMARK  154  A    between atoms: _371  and  _372
REMARK  155  A    between atoms: _371  and  _374
REMARK  156  A    between atoms: _374  and  _375
REMARK  157  A    between atoms: _375  and  _376
REMARK  158  A    between atoms: _379  and  _381
REMARK  159  A    between atoms: _381  and  _382
REMARK  160  A    between atoms: _381  and  _384
REMARK  161  A    between atoms: _384  and  _385
REMARK  162  A    between atoms: _385  and  _386
REMARK  163  A    between atoms: _389  and  _391
REMARK  164  A    between atoms: _391  and  _392
REMARK  165  A    between atoms: _391  and  _394
REMARK  166  A    between atoms: _394  and  _395
REMARK  167  A    between atoms: _398  and  _400
REMARK  168  A    between atoms: _400  and  _401
REMARK  169  A    between atoms: _400  and  _403
REMARK  170  A    between atoms: _403  and  _404
REMARK  171  A    between atoms: _409  and  _411
REMARK  172  A    between atoms: _411  and  _412
REMARK  173  A    between atoms: _411  and  _414
REMARK  174  A    between atoms: _414  and  _415
REMARK  175  A    between atoms: _417  and  _419
REMARK  176  A    between atoms: _419  and  _420
REMARK  177  A    between atoms: _419  and  _422
REMARK  178  A    between atoms: _422  and  _423
REMARK  179  A    between atoms: _423  and  _424
REMARK  180  A    between atoms: _426  and  _428
REMARK  181  A    between atoms: _428  and  _429
REMARK  182  A    between atoms: _432  and  _434
REMARK  183  A    between atoms: _434  and  _435
REMARK  184  A    between atoms: _434  and  _437
REMARK  185  A    between atoms: _437  and  _438
REMARK  186  A    between atoms: _443  and  _445
REMARK  187  A    between atoms: _445  and  _446
REMARK  188  A    between atoms: _445  and  _448
REMARK  189  A    between atoms: _448  and  _449
REMARK  190  A    between atoms: _455  and  _457
REMARK  191  A    between atoms: _457  and  _458
REMARK  192  A    between atoms: _457  and  _460
REMARK  193  A    between atoms: _460  and  _461
REMARK  194  A    between atoms: _466  and  _467
REMARK  195  A    between atoms: _469  and  _471
REMARK  196  A    between atoms: _471  and  _472
REMARK  197  A    between atoms: _471  and  _474
REMARK  198  A    between atoms: _474  and  _475
REMARK  199  A    between atoms: _478  and  _480
REMARK  200  A    between atoms: _480  and  _481
REMARK  201  A    between atoms: _480  and  _483
REMARK  202  A    between atoms: _483  and  _484
REMARK  203  A    between atoms: _487  and  _489
REMARK  204  A    between atoms: _489  and  _490
REMARK  205  A    between atoms: _489  and  _492
REMARK  206  A    between atoms: _492  and  _493
REMARK  207  A    between atoms: _496  and  _498
REMARK  208  A    between atoms: _498  and  _499
REMARK  209  A    between atoms: _498  and  _501
REMARK  210  A    between atoms: _501  and  _502
REMARK  211  A    between atoms: _507  and  _508
REMARK  212  A    between atoms: _510  and  _512
REMARK  213  A    between atoms: _512  and  _513
REMARK  214  A    between atoms: _512  and  _515
REMARK  215  A    between atoms: _515  and  _516
REMARK  216  A    between atoms: _519  and  _521
REMARK  217  A    between atoms: _521  and  _522
REMARK  218  A    between atoms: _521  and  _524
REMARK  219  A    between atoms: _524  and  _525
REMARK  220  A    between atoms: _525  and  _526
REMARK  221  A    between atoms: _526  and  _527
REMARK  222  A    between atoms: _536  and  _538
REMARK  223  A    between atoms: _538  and  _539
REMARK  224  A    between atoms: _538  and  _541
REMARK  225  A    between atoms: _541  and  _542
REMARK  226  A    between atoms: _548  and  _549
REMARK  227  A    between atoms: _554  and  _556
REMARK  228  A    between atoms: _556  and  _557
REMARK  229  A    between atoms: _556  and  _559
REMARK  230  A    between atoms: _559  and  _560
REMARK  231  A    between atoms: _560  and  _561
REMARK  232  A    between atoms: _563  and  _565
REMARK  233  A    between atoms: _565  and  _566
REMARK  234  A    between atoms: _565  and  _568
REMARK  235  A    between atoms: _571  and  _573
REMARK  236  A    between atoms: _573  and  _574
REMARK  237  A    between atoms: _577  and  _579
REMARK  238  A    between atoms: _579  and  _580
REMARK  239  A    between atoms: _579  and  _582
REMARK  240  A    between atoms: _582  and  _583
REMARK  241  A    between atoms: _586  and  _588
REMARK  242  A    between atoms: _588  and  _589
REMARK  243  A    between atoms: _588  and  _591
REMARK  244  A    between atoms: _591  and  _592
REMARK  245  A    between atoms: _592  and  _593
REMARK  246  A    between atoms: _598  and  _600
REMARK  247  A    between atoms: _600  and  _601
REMARK  248  A    between atoms: _600  and  _603
REMARK  249  A    between atoms: _603  and  _604
REMARK  250  A    between atoms: _607  and  _609
REMARK  251  A    between atoms: _609  and  _610
REMARK  252  A    between atoms: _609  and  _612
REMARK  253  A    between atoms: _614  and  _616
REMARK  254  A    between atoms: _616  and  _617
REMARK  255  A    between atoms: _616  and  _619
REMARK  256  A    between atoms: _619  and  _620
REMARK  257  A    between atoms: _620  and  _621
REMARK  258  A    between atoms: _624  and  _626
REMARK  259  A    between atoms: _626  and  _627
REMARK  260  A    between atoms: _626  and  _629
REMARK  261  A    between atoms: _629  and  _630
REMARK  262  A    between atoms: _630  and  _631
REMARK  263  A    between atoms: _631  and  _632
REMARK  264  A    between atoms: _632  and  _633
REMARK  265  A    between atoms: _637  and  _639
REMARK  266  A    between atoms: _639  and  _640
REMARK  267  A    between atoms: _639  and  _642
REMARK  268  A    between atoms: _642  and  _643
REMARK  269  A    between atoms: _648  and  _650
REMARK  270  A    between atoms: _650  and  _651
REMARK  271  A    between atoms: _650  and  _653
REMARK  272  A    between atoms: _653  and  _654
REMARK  273  A    between atoms: _659  and  _660
REMARK  274  A    between atoms: _662  and  _664
REMARK  275  A    between atoms: _664  and  _665
REMARK  276  A    between atoms: _664  and  _667
REMARK  277  A    between atoms: _667  and  _668
REMARK  278  A    between atoms: _668  and  _669
REMARK  279  A    between atoms: _669  and  _670
REMARK                            x       y       z     vdW  Elec       q    Type
REMARK                         _______ _______ _______ _____ _____    ______ ____
ROOT
ATOM      1  CA  TYR A   1      10.896   2.953   9.571  0.00  0.00    +0.149 C 
ENDROOT
BRANCH   1   2
ATOM      2  C   TYR A   1      11.157   2.031   8.382  0.00  0.00    +0.239 C 
ATOM      3  N   ASP A   2      11.872   0.928   8.637  0.00  0.00    -0.298 N 
ATOM      4  H   ASP A   2      12.073   0.679   9.627  0.00  0.00    +0.150 HD
ATOM      5  O   TYR A   1      10.812   2.374   7.240  0.00  0.00    -0.274 OA
BRANCH   3   6
ATOM      6  CA  ASP A   2      12.383   0.055   7.569  0.00  0.00    +0.148 C 
BRANCH   6   7
ATOM      7  C   ASP A   2      11.389  -0.942   7.044  0.00  0.00    +0.227 C 
ATOM      8  O   ASP A   2      11.278  -1.057   5.824  0.00  0.00    -0.286 OA
ENDBRANCH   6   7
BRANCH   6   9
ATOM      9  CB  ASP A   2      13.738  -0.559   7.973  0.00  0.00    +0.142 C 
BRANCH   9  10
ATOM     10  CG  ASP A   2      14.713   0.524   8.401  0.00  0.00    +0.367 C 
ATOM     11  OD2 ASP A   2      15.170   0.485   9.559  0.00  0.00    -0.246 OA
ATOM     12  OD1 ASP A   2      14.907   1.481   7.632  0.00  0.00    -0.246 OA
ENDBRANCH   9  10
ENDBRANCH   6   9
ENDBRANCH   3   6
ENDBRANCH   1   2
BRANCH   1  13
ATOM     13  N   TYR A   1      10.126   2.323  10.633  0.00  0.00    -0.238 NA
ATOM     14  H   TYR A   1      10.623   1.979  11.479  0.00  0.00    +0.142 HD
ENDBRANCH   1  13
BRANCH   1  15
ATOM     15  CB  TYR A   1      12.233   3.430  10.123  0.00  0.00    +0.053 C 
BRANCH  15  16
ATOM     16  CG  TYR A   1      12.193   4.788  10.782  0.00  0.00    -0.020 A 
ATOM     17  CD2 TYR A   1      11.439   5.007  11.935  0.00  0.00    -0.001 A 
ATOM     18  CE2 TYR A   1      11.387   6.266  12.538  0.00  0.00    +0.036 A 
ATOM     19  CZ  TYR A   1      12.102   7.321  11.990  0.00  0.00    +0.134 A 
ATOM     20  CE1 TYR A   1      12.865   7.122  10.848  0.00  0.00    +0.036 A 
ATOM     21  CD1 TYR A   1      12.883   5.870  10.235  0.00  0.00    -0.001 A 
BRANCH  19  22
ATOM     22  OH  TYR A   1      12.058   8.578  12.562  0.00  0.00    -0.506 OA
ATOM     23  HH  TYR A   1      12.625   9.198  12.038  0.00  0.00    +0.292 HD
ENDBRANCH  19  22
ENDBRANCH  15  16
ENDBRANCH   1  15
TORSDOF 9
REMARK  Name = ../refined-set-2016/3t8v/3t8v_pocket.pdb
REMARK  279 active torsions:
REMARK  status: ('A' for Active; 'I' for Inactive)
REMARK    1  A    between atoms: _1  and  _3
REMARK    2  A    between atoms: _3  and  _4
REMARK    3  A    between atoms: _7  and  _9
REMARK    4  A    between atoms: _9  and  _10
REMARK    5  A    between atoms: _9  and  _12
REMARK    6  A    between atoms: _12  and  _13
REMARK    7  A    between atoms: _16  and  _18
REMARK    8  A    between atoms: _18  and  _19
REMARK    9  A    between atoms: _18  and  _21
REMARK   10  A    between atoms: _21  and  _22
REMARK   11  A    between atoms: _25  and  _27
REMARK   12  A    between atoms: _27  and  _28
REMARK   13  A    between atoms: _27  and  _30
REMARK   14  A    between atoms: _30  and  _31
REMARK   15  A    between atoms: _31  and  _32
REMARK   16  A    between atoms: _37  and  _39
REMARK   17  A    between atoms: _39  and  _40
REMARK   18  A    between atoms: _39  and  _42
REMARK   19  A    between atoms: _44  and  _46
REMARK   20  A    between atoms: _46  and  _47
REMARK   21  A    between atoms: _46  and  _49
REMARK   22  A    between atoms: _49  and  _50
REMARK   23  A    between atoms: _50  and  _51
REMARK   24  A    between atoms: _54  and  _56
REMARK   25  A    between atoms: _56  and  _57
REMARK   26  A    between atoms: _60  and  _62
REMARK   27  A    between atoms: _62  and  _63
REMARK   28  A    between atoms: _62  and  _65
REMARK   29  A    between atoms: _65  and  _66
REMARK   30  A    between atoms: _69  and  _71
REMARK   31  A    between atoms: _71  and  _72
REMARK   32  A    between atoms: _74  and  _76
REMARK   33  A    between atoms: _76  and  _77
REMARK   34  A    between atoms: _76  and  _79
REMARK   35  A    between atoms: _79  and  _80
REMARK   36  A    between atoms: _85  and  _86
REMARK   37  A    between atoms: _88  and  _90
REMARK   38  A    between atoms: _90  and  _91
REMARK   39  A    between atoms: _90  and  _93
REMARK   40  A    between atoms: _93  and  _94
REMARK   41  A    between atoms: _100  and  _102
REMARK   42  A    between atoms: _102  and  _103
REMARK   43  A    between atoms: _102  and  _105
REMARK   44  A    between atoms: _105  and  _106
REMARK   45  A    between atoms: _111  and  _113
REMARK   46  A    between atoms: _113  and  _114
REMARK   47  A    between atoms: _113  and  _116
REMARK   48  A    between atoms: _119  and  _121
REMARK   49  A    between atoms: _121  and  _122
REMARK   50  A    between atoms: _124  and  _126
REMARK   51  A    between atoms: _126  and  _127
REMARK   52  A    between atoms: _130  and  _132
REMARK   53  A    between atoms: _132  and  _133
REMARK   54  A    between atoms: _132  and  _135
REMARK   55  A    between atoms: _135  and  _136
REMARK   56  A    between atoms: _136  and  _137
REMARK   57  A    between atoms: _139  and  _141
REMARK   58  A    between atoms: _141  and  _142
REMARK   59  A    between atoms: _141  and  _144
REMARK   60  A    between atoms: _144  and  _145
REMARK   61  A    between atoms: _145  and  _146
REMARK   62  A    between atoms: _149  and  _151
REMARK   63  A    between atoms: _151  and  _152
REMARK   64  A    between atoms: _151  and  _154
REMARK   65  A    between atoms: _154  and  _155
REMARK   66  A    between atoms: _160  and  _162
REMARK   67  A    between atoms: _162  and  _163
REMARK   68  A    between atoms: _162  and  _165
REMARK   69  A    between atoms: _165  and  _166
REMARK   70  A    between atoms: _169  and  _171
REMARK   71  A    between atoms: _171  and  _172
REMARK   72  A    between atoms: _171  and  _174
REMARK   73  A    between atoms: _174  and  _175
REMARK   74  A    between atoms: _181  and  _183
REMARK   75  A    between atoms: _183  and  _184
REMARK   76  A    between atoms: _183  and  _186
REMARK   77  A    between atoms: _186  and  _187
REMARK   78  A    between atoms: _192  and  _194
REMARK   79  A    between atoms: _194  and  _195
REMARK   80  A    between atoms: _194  and  _197
REMARK   81  A    between atoms: _197  and  _198
REMARK   82  A    between atoms: _203  and  _205
REMARK   83  A    between atoms: _205  and  _206
REMARK   84  A    between atoms: _205  and  _208
REMARK   85  A    between atoms: _208  and  _209
REMARK   86  A    between atoms: _211  and  _213
REMARK   87  A    between atoms: _213  and  _214
REMARK   88  A    between atoms: _213  and  _216
REMARK   89  A    between atoms: _216  and  _217
REMARK   90  A    between atoms: _217  and  _218
REMARK   91  A    between atoms: _218  and  _219
REMARK   92  A    between atoms: _228  and  _230
REMARK   93  A    between atoms: _230  and  _231
REMARK   94  A    between atoms: _230  and  _233
REMARK   95  A    between atoms: _233  and  _234
REMARK   96  A    between atoms: _237  and  _239
REMARK   97  A    between atoms: _239  and  _240
REMARK   98  A    between atoms: _239  and  _242
REMARK   99  A    between atoms: _245  and  _247
REMARK  100  A    between atoms: _247  and  _248
REMARK  101  A    between atoms: _247  and  _250
REMARK  102  A    between atoms: _253  and  _255
REMARK  103  A    between atoms: _255  and  _256
REMARK  104  A    between atoms: _258  and  _260
REMARK  105  A    between atoms: _260  and  _261
REMARK  106  A    between atoms: _260  and  _263
REMARK  107  A    between atoms: _263  and  _264
REMARK  108  A    between atoms: _268  and  ZN_679
REMARK  109  A    between atoms: _269  and  _271
REMARK  110  A    between atoms: _271  and  _272
REMARK  111  A    between atoms: _271  and  _274
REMARK  112  A    between atoms: _274  and  _275
REMARK  113  A    between atoms: _275  and  _276
REMARK  114  A    between atoms: _279  and  _281
REMARK  115  A    between atoms: _281  and  _282
REMARK  116  A    between atoms: _281  and  _284
REMARK  117  A    between atoms: _284  and  _285
REMARK  118  A    between atoms: _290  and  _291
REMARK  119  A    between atoms: _293  and  _295
REMARK  120  A    between atoms: _295  and  _296
REMARK  121  A    between atoms: _295  and  _298
REMARK  122  A    between atoms: _298  and  _299
REMARK  123  A    between atoms: _303  and  ZN_679
REMARK  124  A    between atoms: _304  and  _306
REMARK  125  A    between atoms: _306  and  _307
REMARK  126  A    between atoms: _306  and  _309
REMARK  127  A    between atoms: _309  and  _310
REMARK  128  A    between atoms: _320  and  _322
REMARK  129  A    between atoms: _322  and  _323
REMARK  130  A    between atoms: _322  and  _325
REMARK  131  A    between atoms: _325  and  _326
REMARK  132  A    between atoms: _329  and  _331
REMARK  133  A    between atoms: _331  and  _332
REMARK  134  A    between atoms: _331  and  _334
REMARK  135  A    between atoms: _334  and  _335
REMARK  136  A    between atoms: _335  and  _336
REMARK  137  A    between atoms: _336  and  _337
REMARK  138  A    between atoms: _337  and  _338
REMARK  139  A    between atoms: _342  and  _344
REMARK  140  A    between atoms: _344  and  _345
REMARK  141  A    between atoms: _344  and  _347
REMARK  142  A    between atoms: _347  and  _348
REMARK  143  A    between atoms: _348  and  _349
REMARK  144  A    between atoms: _349  and  _350
REMARK  145  A    between atoms: _350  and  ZN_679
REMARK  146  A    between atoms: _352  and  _354
REMARK  147  A    between atoms: _354  and  _355
REMARK  148  A    between atoms: _354  and  _357
REMARK  149  A    between atoms: _357  and  _358
REMARK  150  A    between atoms: _361  and  _363
REMARK  151  A    between atoms: _363  and  _364
REMARK  152  A    between atoms: _363  and  _366
REMARK  153  A    between atoms: _369  and  _371
REMARK  154  A    between atoms: _371  and  _372
REMARK  155  A    between atoms: _371  and  _374
REMARK  156  A    between atoms: _374  and  _375
REMARK  157  A    between atoms: _375  and  _376
REMARK  158  A    between atoms: _379  and  _381
REMARK  159  A    between atoms: _381  and  _382
REMARK  160  A    between atoms: _381  and  _384
REMARK  161  A    between atoms: _384  and  _385
REMARK  162  A    between atoms: _385  and  _386
REMARK  163  A    between atoms: _389  and  _391
REMARK  164  A    between atoms: _391  and  _392
REMARK  165  A    between atoms: _391  and  _394
REMARK  166  A    between atoms: _394  and  _395
REMARK  167  A    between atoms: _398  and  _400
REMARK  168  A    between atoms: _400  and  _401
REMARK  169  A    between atoms: _400  and  _403
REMARK  170  A    between atoms: _403  and  _404
REMARK  171  A    between atoms: _409  and  _411
REMARK  172  A    between atoms: _411  and  _412
REMARK  173  A    between atoms: _411  and  _414
REMARK  174  A    between atoms: _414  and  _415
REMARK  175  A    between atoms: _417  and  _419
REMARK  176  A    between atoms: _419  and  _420
REMARK  177  A    between atoms: _419  and  _422
REMARK  178  A    between atoms: _422  and  _423
REMARK  179  A    between atoms: _423  and  _424
REMARK  180  A    between atoms: _426  and  _428
REMARK  181  A    between atoms: _428  and  _429
REMARK  182  A    between atoms: _432  and  _434
REMARK  183  A    between atoms: _434  and  _435
REMARK  184  A    between atoms: _434  and  _437
REMARK  185  A    between atoms: _437  and  _438
REMARK  186  A    between atoms: _443  and  _445
REMARK  187  A    between atoms: _445  and  _446
REMARK  188  A    between atoms: _445  and  _448
REMARK  189  A    between atoms: _448  and  _449
REMARK  190  A    between atoms: _455  and  _457
REMARK  191  A    between atoms: _457  and  _458
REMARK  192  A    between atoms: _457  and  _460
REMARK  193  A    between atoms: _460  and  _461
REMARK  194  A    between atoms: _466  and  _467
REMARK  195  A    between atoms: _469  and  _471
REMARK  196  A    between atoms: _471  and  _472
REMARK  197  A    between atoms: _471  and  _474
REMARK  198  A    between atoms: _474  and  _475
REMARK  199  A    between atoms: _478  and  _480
REMARK  200  A    between atoms: _480  and  _481
REMARK  201  A    between atoms: _480  and  _483
REMARK  202  A    between atoms: _483  and  _484
REMARK  203  A    between atoms: _487  and  _489
REMARK  204  A    between atoms: _489  and  _490
REMARK  205  A    between atoms: _489  and  _492
REMARK  206  A    between atoms: _492  and  _493
REMARK  207  A    between atoms: _496  and  _498
REMARK  208  A    between atoms: _498  and  _499
REMARK  209  A    between atoms: _498  and  _501
REMARK  210  A    between atoms: _501  and  _502
REMARK  211  A    between atoms: _507  and  _508
REMARK  212  A    between atoms: _510  and  _512
REMARK  213  A    between atoms: _512  and  _513
REMARK  214  A    between atoms: _512  and  _515
REMARK  215  A    between atoms: _515  and  _516
REMARK  216  A    between atoms: _519  and  _521
REMARK  217  A    between atoms: _521  and  _522
REMARK  218  A    between atoms: _521  and  _524
REMARK  219  A    between atoms: _524  and  _525
REMARK  220  A    between atoms: _525  and  _526
REMARK  221  A    between atoms: _526  and  _527
REMARK  222  A    between atoms: _536  and  _538
REMARK  223  A    between atoms: _538  and  _539
REMARK  224  A    between atoms: _538  and  _541
REMARK  225  A    between atoms: _541  and  _542
REMARK  226  A    between atoms: _548  and  _549
REMARK  227  A    between atoms: _554  and  _556
REMARK  228  A    between atoms: _556  and  _557
REMARK  229  A    between atoms: _556  and  _559
REMARK  230  A    between atoms: _559  and  _560
REMARK  231  A    between atoms: _560  and  _561
REMARK  232  A    between atoms: _563  and  _565
REMARK  233  A    between atoms: _565  and  _566
REMARK  234  A    between atoms: _565  and  _568
REMARK  235  A    between atoms: _571  and  _573
REMARK  236  A    between atoms: _573  and  _574
REMARK  237  A    between atoms: _577  and  _579
REMARK  238  A    between atoms: _579  and  _580
REMARK  239  A    between atoms: _579  and  _582
REMARK  240  A    between atoms: _582  and  _583
REMARK  241  A    between atoms: _586  and  _588
REMARK  242  A    between atoms: _588  and  _589
REMARK  243  A    between atoms: _588  and  _591
REMARK  244  A    between atoms: _591  and  _592
REMARK  245  A    between atoms: _592  and  _593
REMARK  246  A    between atoms: _598  and  _600
REMARK  247  A    between atoms: _600  and  _601
REMARK  248  A    between atoms: _600  and  _603
REMARK  249  A    between atoms: _603  and  _604
REMARK  250  A    between atoms: _607  and  _609
REMARK  251  A    between atoms: _609  and  _610
REMARK  252  A    between atoms: _609  and  _612
REMARK  253  A    between atoms: _614  and  _616
REMARK  254  A    between atoms: _616  and  _617
REMARK  255  A    between atoms: _616  and  _619
REMARK  256  A    between atoms: _619  and  _620
REMARK  257  A    between atoms: _620  and  _621
REMARK  258  A    between atoms: _624  and  _626
REMARK  259  A    between atoms: _626  and  _627
REMARK  260  A    between atoms: _626  and  _629
REMARK  261  A    between atoms: _629  and  _630
REMARK  262  A    between atoms: _630  and  _631
REMARK  263  A    between atoms: _631  and  _632
REMARK  264  A    between atoms: _632  and  _633
REMARK  265  A    between atoms: _637  and  _639
REMARK  266  A    between atoms: _639  and  _640
REMARK  267  A    between atoms: _639  and  _642
REMARK  268  A    between atoms: _642  and  _643
REMARK  269  A    between atoms: _648  and  _650
REMARK  270  A    between atoms: _650  and  _651
REMARK  271  A    between atoms: _650  and  _653
REMARK  272  A    between atoms: _653  and  _654
REMARK  273  A    between atoms: _659  and  _660
REMARK  274  A    between atoms: _662  and  _664
REMARK  275  A    between atoms: _664  and  _665
REMARK  276  A    between atoms: _664  and  _667
REMARK  277  A    between atoms: _667  and  _668
REMARK  278  A    between atoms: _668  and  _669
REMARK  279  A    between atoms: _669  and  _670
REMARK                            x       y       z     vdW  Elec       q    Type
REMARK                         _______ _______ _______ _____ _____    ______ ____
ROOT
ATOM      1  NE  ARG A   1      24.319   8.003  19.227  0.00  0.00    -0.265 N 
ATOM      2  CZ  ARG A   1      23.443   9.002  19.199  0.00  0.00    +0.342 C 
ATOM      3  NH2 ARG A   1      22.250   8.860  19.757  0.00  0.00    -0.292 N 
ATOM      4 HH21 ARG A   1      21.996   7.964  20.220  0.00  0.00    +0.255 HD
ATOM      5 HH22 ARG A   1      21.568   9.645  19.733  0.00  0.00    +0.255 HD
ATOM      6  NH1 ARG A   1      23.755  10.151  18.615  0.00  0.00    -0.292 N 
ATOM      7 HH11 ARG A   1      23.065  10.929  18.596  0.00  0.00    +0.255 HD
ATOM      8 HH12 ARG A   1      24.690  10.274  18.176  0.00  0.00    +0.255 HD
ATOM      9  HE  ARG A   1      25.252   8.159  18.794  0.00  0.00    +0.259 HD
ENDROOT
BRANCH   1  10
ATOM     10  CD  ARG A   1      24.050   6.688  19.834  0.00  0.00    +0.174 C 
BRANCH  10  11
ATOM     11  CG  ARG A   1      25.093   6.294  20.870  0.00  0.00    +0.045 C 
BRANCH  11  12
ATOM     12  CB  ARG A   1      26.475   6.044  20.244  0.00  0.00    +0.029 C 
BRANCH  12  13
ATOM     13  CA  ARG A   1      27.537   5.575  21.255  0.00  0.00    +0.133 C 
BRANCH  13  14
ATOM     14  N   ARG A   1      27.866   6.623  22.229  0.00  0.00    -0.239 NA
ATOM     15  H   ARG A   1      27.448   7.569  22.124  0.00  0.00    +0.142 HD
ENDBRANCH  13  14
BRANCH  13  16
ATOM     16  C   ARG A   1      28.787   5.036  20.529  0.00  0.00    +0.224 C 
ATOM     17  O   ARG A   1      28.864   3.833  20.307  0.00  0.00    -0.287 OA
ENDBRANCH  13  16
ENDBRANCH  12  13
ENDBRANCH  11  12
ENDBRANCH  10  11
ENDBRANCH   1  10
TORSDOF 6
REMARK  Name = ../refined-set-2016/3t8v/3t8v_pocket.pdb
REMARK  279 active torsions:
REMARK  status: ('A' for Active; 'I' for Inactive)
REMARK    1  A    between atoms: _1  and  _3
REMARK    2  A    between atoms: _3  and  _4
REMARK    3  A    between atoms: _7  and  _9
REMARK    4  A    between atoms: _9  and  _10
REMARK    5  A    between atoms: _9  and  _12
REMARK    6  A    between atoms: _12  and  _13
REMARK    7  A    between atoms: _16  and  _18
REMARK    8  A    between atoms: _18  and  _19
REMARK    9  A    between atoms: _18  and  _21
REMARK   10  A    between atoms: _21  and  _22
REMARK   11  A    between atoms: _25  and  _27
REMARK   12  A    between atoms: _27  and  _28
REMARK   13  A    between atoms: _27  and  _30
REMARK   14  A    between atoms: _30  and  _31
REMARK   15  A    between atoms: _31  and  _32
REMARK   16  A    between atoms: _37  and  _39
REMARK   17  A    between atoms: _39  and  _40
REMARK   18  A    between atoms: _39  and  _42
REMARK   19  A    between atoms: _44  and  _46
REMARK   20  A    between atoms: _46  and  _47
REMARK   21  A    between atoms: _46  and  _49
REMARK   22  A    between atoms: _49  and  _50
REMARK   23  A    between atoms: _50  and  _51
REMARK   24  A    between atoms: _54  and  _56
REMARK   25  A    between atoms: _56  and  _57
REMARK   26  A    between atoms: _60  and  _62
REMARK   27  A    between atoms: _62  and  _63
REMARK   28  A    between atoms: _62  and  _65
REMARK   29  A    between atoms: _65  and  _66
REMARK   30  A    between atoms: _69  and  _71
REMARK   31  A    between atoms: _71  and  _72
REMARK   32  A    between atoms: _74  and  _76
REMARK   33  A    between atoms: _76  and  _77
REMARK   34  A    between atoms: _76  and  _79
REMARK   35  A    between atoms: _79  and  _80
REMARK   36  A    between atoms: _85  and  _86
REMARK   37  A    between atoms: _88  and  _90
REMARK   38  A    between atoms: _90  and  _91
REMARK   39  A    between atoms: _90  and  _93
REMARK   40  A    between atoms: _93  and  _94
REMARK   41  A    between atoms: _100  and  _102
REMARK   42  A    between atoms: _102  and  _103
REMARK   43  A    between atoms: _102  and  _105
REMARK   44  A    between atoms: _105  and  _106
REMARK   45  A    between atoms: _111  and  _113
REMARK   46  A    between atoms: _113  and  _114
REMARK   47  A    between atoms: _113  and  _116
REMARK   48  A    between atoms: _119  and  _121
REMARK   49  A    between atoms: _121  and  _122
REMARK   50  A    between atoms: _124  and  _126
REMARK   51  A    between atoms: _126  and  _127
REMARK   52  A    between atoms: _130  and  _132
REMARK   53  A    between atoms: _132  and  _133
REMARK   54  A    between atoms: _132  and  _135
REMARK   55  A    between atoms: _135  and  _136
REMARK   56  A    between atoms: _136  and  _137
REMARK   57  A    between atoms: _139  and  _141
REMARK   58  A    between atoms: _141  and  _142
REMARK   59  A    between atoms: _141  and  _144
REMARK   60  A    between atoms: _144  and  _145
REMARK   61  A    between atoms: _145  and  _146
REMARK   62  A    between atoms: _149  and  _151
REMARK   63  A    between atoms: _151  and  _152
REMARK   64  A    between atoms: _151  and  _154
REMARK   65  A    between atoms: _154  and  _155
REMARK   66  A    between atoms: _160  and  _162
REMARK   67  A    between atoms: _162  and  _163
REMARK   68  A    between atoms: _162  and  _165
REMARK   69  A    between atoms: _165  and  _166
REMARK   70  A    between atoms: _169  and  _171
REMARK   71  A    between atoms: _171  and  _172
REMARK   72  A    between atoms: _171  and  _174
REMARK   73  A    between atoms: _174  and  _175
REMARK   74  A    between atoms: _181  and  _183
REMARK   75  A    between atoms: _183  and  _184
REMARK   76  A    between atoms: _183  and  _186
REMARK   77  A    between atoms: _186  and  _187
REMARK   78  A    between atoms: _192  and  _194
REMARK   79  A    between atoms: _194  and  _195
REMARK   80  A    between atoms: _194  and  _197
REMARK   81  A    between atoms: _197  and  _198
REMARK   82  A    between atoms: _203  and  _205
REMARK   83  A    between atoms: _205  and  _206
REMARK   84  A    between atoms: _205  and  _208
REMARK   85  A    between atoms: _208  and  _209
REMARK   86  A    between atoms: _211  and  _213
REMARK   87  A    between atoms: _213  and  _214
REMARK   88  A    between atoms: _213  and  _216
REMARK   89  A    between atoms: _216  and  _217
REMARK   90  A    between atoms: _217  and  _218
REMARK   91  A    between atoms: _218  and  _219
REMARK   92  A    between atoms: _228  and  _230
REMARK   93  A    between atoms: _230  and  _231
REMARK   94  A    between atoms: _230  and  _233
REMARK   95  A    between atoms: _233  and  _234
REMARK   96  A    between atoms: _237  and  _239
REMARK   97  A    between atoms: _239  and  _240
REMARK   98  A    between atoms: _239  and  _242
REMARK   99  A    between atoms: _245  and  _247
REMARK  100  A    between atoms: _247  and  _248
REMARK  101  A    between atoms: _247  and  _250
REMARK  102  A    between atoms: _253  and  _255
REMARK  103  A    between atoms: _255  and  _256
REMARK  104  A    between atoms: _258  and  _260
REMARK  105  A    between atoms: _260  and  _261
REMARK  106  A    between atoms: _260  and  _263
REMARK  107  A    between atoms: _263  and  _264
REMARK  108  A    between atoms: _268  and  ZN_679
REMARK  109  A    between atoms: _269  and  _271
REMARK  110  A    between atoms: _271  and  _272
REMARK  111  A    between atoms: _271  and  _274
REMARK  112  A    between atoms: _274  and  _275
REMARK  113  A    between atoms: _275  and  _276
REMARK  114  A    between atoms: _279  and  _281
REMARK  115  A    between atoms: _281  and  _282
REMARK  116  A    between atoms: _281  and  _284
REMARK  117  A    between atoms: _284  and  _285
REMARK  118  A    between atoms: _290  and  _291
REMARK  119  A    between atoms: _293  and  _295
REMARK  120  A    between atoms: _295  and  _296
REMARK  121  A    between atoms: _295  and  _298
REMARK  122  A    between atoms: _298  and  _299
REMARK  123  A    between atoms: _303  and  ZN_679
REMARK  124  A    between atoms: _304  and  _306
REMARK  125  A    between atoms: _306  and  _307
REMARK  126  A    between atoms: _306  and  _309
REMARK  127  A    between atoms: _309  and  _310
REMARK  128  A    between atoms: _320  and  _322
REMARK  129  A    between atoms: _322  and  _323
REMARK  130  A    between atoms: _322  and  _325
REMARK  131  A    between atoms: _325  and  _326
REMARK  132  A    between atoms: _329  and  _331
REMARK  133  A    between atoms: _331  and  _332
REMARK  134  A    between atoms: _331  and  _334
REMARK  135  A    between atoms: _334  and  _335
REMARK  136  A    between atoms: _335  and  _336
REMARK  137  A    between atoms: _336  and  _337
REMARK  138  A    between atoms: _337  and  _338
REMARK  139  A    between atoms: _342  and  _344
REMARK  140  A    between atoms: _344  and  _345
REMARK  141  A    between atoms: _344  and  _347
REMARK  142  A    between atoms: _347  and  _348
REMARK  143  A    between atoms: _348  and  _349
REMARK  144  A    between atoms: _349  and  _350
REMARK  145  A    between atoms: _350  and  ZN_679
REMARK  146  A    between atoms: _352  and  _354
REMARK  147  A    between atoms: _354  and  _355
REMARK  148  A    between atoms: _354  and  _357
REMARK  149  A    between atoms: _357  and  _358
REMARK  150  A    between atoms: _361  and  _363
REMARK  151  A    between atoms: _363  and  _364
REMARK  152  A    between atoms: _363  and  _366
REMARK  153  A    between atoms: _369  and  _371
REMARK  154  A    between atoms: _371  and  _372
REMARK  155  A    between atoms: _371  and  _374
REMARK  156  A    between atoms: _374  and  _375
REMARK  157  A    between atoms: _375  and  _376
REMARK  158  A    between atoms: _379  and  _381
REMARK  159  A    between atoms: _381  and  _382
REMARK  160  A    between atoms: _381  and  _384
REMARK  161  A    between atoms: _384  and  _385
REMARK  162  A    between atoms: _385  and  _386
REMARK  163  A    between atoms: _389  and  _391
REMARK  164  A    between atoms: _391  and  _392
REMARK  165  A    between atoms: _391  and  _394
REMARK  166  A    between atoms: _394  and  _395
REMARK  167  A    between atoms: _398  and  _400
REMARK  168  A    between atoms: _400  and  _401
REMARK  169  A    between atoms: _400  and  _403
REMARK  170  A    between atoms: _403  and  _404
REMARK  171  A    between atoms: _409  and  _411
REMARK  172  A    between atoms: _411  and  _412
REMARK  173  A    between atoms: _411  and  _414
REMARK  174  A    between atoms: _414  and  _415
REMARK  175  A    between atoms: _417  and  _419
REMARK  176  A    between atoms: _419  and  _420
REMARK  177  A    between atoms: _419  and  _422
REMARK  178  A    between atoms: _422  and  _423
REMARK  179  A    between atoms: _423  and  _424
REMARK  180  A    between atoms: _426  and  _428
REMARK  181  A    between atoms: _428  and  _429
REMARK  182  A    between atoms: _432  and  _434
REMARK  183  A    between atoms: _434  and  _435
REMARK  184  A    between atoms: _434  and  _437
REMARK  185  A    between atoms: _437  and  _438
REMARK  186  A    between atoms: _443  and  _445
REMARK  187  A    between atoms: _445  and  _446
REMARK  188  A    between atoms: _445  and  _448
REMARK  189  A    between atoms: _448  and  _449
REMARK  190  A    between atoms: _455  and  _457
REMARK  191  A    between atoms: _457  and  _458
REMARK  192  A    between atoms: _457  and  _460
REMARK  193  A    between atoms: _460  and  _461
REMARK  194  A    between atoms: _466  and  _467
REMARK  195  A    between atoms: _469  and  _471
REMARK  196  A    between atoms: _471  and  _472
REMARK  197  A    between atoms: _471  and  _474
REMARK  198  A    between atoms: _474  and  _475
REMARK  199  A    between atoms: _478  and  _480
REMARK  200  A    between atoms: _480  and  _481
REMARK  201  A    between atoms: _480  and  _483
REMARK  202  A    between atoms: _483  and  _484
REMARK  203  A    between atoms: _487  and  _489
REMARK  204  A    between atoms: _489  and  _490
REMARK  205  A    between atoms: _489  and  _492
REMARK  206  A    between atoms: _492  and  _493
REMARK  207  A    between atoms: _496  and  _498
REMARK  208  A    between atoms: _498  and  _499
REMARK  209  A    between atoms: _498  and  _501
REMARK  210  A    between atoms: _501  and  _502
REMARK  211  A    between atoms: _507  and  _508
REMARK  212  A    between atoms: _510  and  _512
REMARK  213  A    between atoms: _512  and  _513
REMARK  214  A    between atoms: _512  and  _515
REMARK  215  A    between atoms: _515  and  _516
REMARK  216  A    between atoms: _519  and  _521
REMARK  217  A    between atoms: _521  and  _522
REMARK  218  A    between atoms: _521  and  _524
REMARK  219  A    between atoms: _524  and  _525
REMARK  220  A    between atoms: _525  and  _526
REMARK  221  A    between atoms: _526  and  _527
REMARK  222  A    between atoms: _536  and  _538
REMARK  223  A    between atoms: _538  and  _539
REMARK  224  A    between atoms: _538  and  _541
REMARK  225  A    between atoms: _541  and  _542
REMARK  226  A    between atoms: _548  and  _549
REMARK  227  A    between atoms: _554  and  _556
REMARK  228  A    between atoms: _556  and  _557
REMARK  229  A    between atoms: _556  and  _559
REMARK  230  A    between atoms: _559  and  _560
REMARK  231  A    between atoms: _560  and  _561
REMARK  232  A    between atoms: _563  and  _565
REMARK  233  A    between atoms: _565  and  _566
REMARK  234  A    between atoms: _565  and  _568
REMARK  235  A    between atoms: _571  and  _573
REMARK  236  A    between atoms: _573  and  _574
REMARK  237  A    between atoms: _577  and  _579
REMARK  238  A    between atoms: _579  and  _580
REMARK  239  A    between atoms: _579  and  _582
REMARK  240  A    between atoms: _582  and  _583
REMARK  241  A    between atoms: _586  and  _588
REMARK  242  A    between atoms: _588  and  _589
REMARK  243  A    between atoms: _588  and  _591
REMARK  244  A    between atoms: _591  and  _592
REMARK  245  A    between atoms: _592  and  _593
REMARK  246  A    between atoms: _598  and  _600
REMARK  247  A    between atoms: _600  and  _601
REMARK  248  A    between atoms: _600  and  _603
REMARK  249  A    between atoms: _603  and  _604
REMARK  250  A    between atoms: _607  and  _609
REMARK  251  A    between atoms: _609  and  _610
REMARK  252  A    between atoms: _609  and  _612
REMARK  253  A    between atoms: _614  and  _616
REMARK  254  A    between atoms: _616  and  _617
REMARK  255  A    between atoms: _616  and  _619
REMARK  256  A    between atoms: _619  and  _620
REMARK  257  A    between atoms: _620  and  _621
REMARK  258  A    between atoms: _624  and  _626
REMARK  259  A    between atoms: _626  and  _627
REMARK  260  A    between atoms: _626  and  _629
REMARK  261  A    between atoms: _629  and  _630
REMARK  262  A    between atoms: _630  and  _631
REMARK  263  A    between atoms: _631  and  _632
REMARK  264  A    between atoms: _632  and  _633
REMARK  265  A    between atoms: _637  and  _639
REMARK  266  A    between atoms: _639  and  _640
REMARK  267  A    between atoms: _639  and  _642
REMARK  268  A    between atoms: _642  and  _643
REMARK  269  A    between atoms: _648  and  _650
REMARK  270  A    between atoms: _650  and  _651
REMARK  271  A    between atoms: _650  and  _653
REMARK  272  A    between atoms: _653  and  _654
REMARK  273  A    between atoms: _659  and  _660
REMARK  274  A    between atoms: _662  and  _664
REMARK  275  A    between atoms: _664  and  _665
REMARK  276  A    between atoms: _664  and  _667
REMARK  277  A    between atoms: _667  and  _668
REMARK  278  A    between atoms: _668  and  _669
REMARK  279  A    between atoms: _669  and  _670
REMARK                            x       y       z     vdW  Elec       q    Type
REMARK                         _______ _______ _______ _____ _____    ______ ____
ROOT
ATOM      1  CA  THR A   6      17.257   3.114  25.483  0.00  0.00    +0.176 C 
ENDROOT
BRANCH   1   4
ATOM      2  C   ALA A   5      19.253   3.850  26.741  0.00  0.00    +0.241 C 
ATOM      3  O   ALA A   5      19.736   2.720  26.717  0.00  0.00    -0.273 OA
ATOM      4  N   THR A   6      18.073   4.136  26.164  0.00  0.00    -0.295 N 
ATOM      5  H   THR A   6      17.723   5.115  26.199  0.00  0.00    +0.150 HD
BRANCH   2   6
ATOM      6  CA  ALA A   5      20.038   5.008  27.387  0.00  0.00    +0.149 C 
ATOM      7  CB  ALA A   5      19.469   5.328  28.770  0.00  0.00    +0.031 C 
BRANCH   6   9
ATOM      8  C   VAL A   4      20.404   6.208  25.267  0.00  0.00    +0.241 C 
ATOM      9  N   ALA A   5      19.945   6.204  26.522  0.00  0.00    -0.297 N 
ATOM     10  H   ALA A   5      19.509   7.068  26.902  0.00  0.00    +0.150 HD
ATOM     11  O   VAL A   4      20.918   5.212  24.743  0.00  0.00    -0.273 OA
BRANCH   8  12
ATOM     12  CA  VAL A   4      20.159   7.484  24.425  0.00  0.00    +0.149 C 
BRANCH  12  14
ATOM     13  C   MET A   3      17.697   7.478  24.392  0.00  0.00    +0.241 C 
ATOM     14  N   VAL A   4      18.857   8.077  24.734  0.00  0.00    -0.297 N 
ATOM     15  H   VAL A   4      18.825   8.989  25.233  0.00  0.00    +0.150 HD
ATOM     16  O   MET A   3      17.650   6.370  23.836  0.00  0.00    -0.273 OA
BRANCH  13  17
ATOM     17  CA  MET A   3      16.388   8.185  24.803  0.00  0.00    +0.149 C 
BRANCH  17  20
ATOM     18  C   PRO A   2      16.564   7.802  27.226  0.00  0.00    +0.241 C 
ATOM     19  O   PRO A   2      16.557   6.580  27.090  0.00  0.00    -0.273 OA
ATOM     20  N   MET A   3      16.469   8.658  26.192  0.00  0.00    -0.297 N 
ATOM     21  H   MET A   3      16.452   9.681  26.381  0.00  0.00    +0.150 HD
BRANCH  18  27
ATOM     22  C   ASN A   1      18.684   9.756  28.369  0.00  0.00    +0.242 C 
ATOM     23  N   PRO A   2      17.396   9.654  28.761  0.00  0.00    -0.272 N 
ATOM     24  CD  PRO A   2      16.568  10.667  29.450  0.00  0.00    +0.094 C 
ATOM     25  CG  PRO A   2      15.531   9.838  30.144  0.00  0.00    +0.024 C 
ATOM     26  CB  PRO A   2      15.268   8.722  29.161  0.00  0.00    +0.031 C 
ATOM     27  CA  PRO A   2      16.662   8.377  28.628  0.00  0.00    +0.152 C 
ATOM     28  O   ASN A   1      19.308   8.812  27.869  0.00  0.00    -0.273 OA
BRANCH  22  29
ATOM     29  CA  ASN A   1      19.366  11.130  28.558  0.00  0.00    +0.154 C 
BRANCH  29  30
ATOM     30  N   ASN A   1      19.927  11.280  29.887  0.00  0.00    -0.238 NA
ATOM     31  H   ASN A   1      20.352  10.458  30.361  0.00  0.00    +0.142 HD
ENDBRANCH  29  30
BRANCH  29  32
ATOM     32  CB  ASN A   1      20.434  11.424  27.469  0.00  0.00    +0.111 C 
BRANCH  32  33
ATOM     33  CG  ASN A   1      19.868  11.605  26.084  0.00  0.00    +0.221 C 
ATOM     34  OD1 ASN A   1      18.839  11.027  25.714  0.00  0.00    -0.275 OA
ATOM     35  ND2 ASN A   1      20.517  12.436  25.289  0.00  0.00    -0.329 N 
ATOM     36 HD21 ASN A   1      21.380  12.909  25.625  0.00  0.00    +0.145 HD
ATOM     37 HD22 ASN A   1      20.165  12.617  24.327  0.00  0.00    +0.145 HD
ENDBRANCH  32  33
ENDBRANCH  29  32
ENDBRANCH  22  29
ENDBRANCH  18  27
ENDBRANCH  17  20
BRANCH  17  38
ATOM     38  CB  MET A   3      16.049   9.336  23.841  0.00  0.00    +0.041 C 
BRANCH  38  39
ATOM     39  CG  MET A   3      14.652   9.882  24.072  0.00  0.00    +0.060 C 
BRANCH  39  40
ATOM     40  SD  MET A   3      14.251  11.265  22.984  0.00  0.00    -0.139 S 
ATOM     41  CE  MET A   3      13.365  12.276  24.110  0.00  0.00    +0.069 C 
ENDBRANCH  39  40
ENDBRANCH  38  39
ENDBRANCH  17  38
ENDBRANCH  13  17
ENDBRANCH  12  14
BRANCH  12  42
ATOM     42  CB  VAL A   4      21.320   8.516  24.408  0.00  0.00    +0.027 C 
ATOM     43  CG2 VAL A   4      22.674   7.849  24.213  0.00  0.00    +0.002 C 
ATOM     44  CG1 VAL A   4      21.082   9.562  23.317  0.00  0.00    +0.002 C 
ENDBRANCH  12  42
ENDBRANCH   8  12
ENDBRANCH   6   9
ENDBRANCH   2   6
ENDBRANCH   1   4
BRANCH   1  45
ATOM     45  C   THR A   6      17.949   2.608  24.196  0.00  0.00    +0.243 C 
ATOM     46  O   THR A   6      17.925   1.402  23.906  0.00  0.00    -0.273 OA
ATOM     47  N   GLN A   7      18.611   3.527  23.445  0.00  0.00    -0.297 N 
ATOM     48  H   GLN A   7      18.573   4.531  23.715  0.00  0.00    +0.150 HD
BRANCH  47  49
ATOM     49  CA  GLN A   7      19.378   3.129  22.260  0.00  0.00    +0.149 C 
BRANCH  49  50
ATOM     50  C   GLN A   7      20.506   2.173  22.669  0.00  0.00    +0.241 C 
ATOM     51  N   LEU A   8      21.127   2.429  23.823  0.00  0.00    -0.297 N 
ATOM     52  H   LEU A   8      20.809   3.243  24.387  0.00  0.00    +0.150 HD
ATOM     53  O   GLN A   7      20.819   1.238  21.930  0.00  0.00    -0.273 OA
BRANCH  51  54
ATOM     54  CA  LEU A   8      22.228   1.623  24.329  0.00  0.00    +0.149 C 
BRANCH  54  55
ATOM     55  C   LEU A   8      21.798   0.220  24.765  0.00  0.00    +0.241 C 
ATOM     56  O   LEU A   8      22.662  -0.646  24.889  0.00  0.00    -0.273 OA
ATOM     57  N   CYS A   9      20.453  -0.032  24.880  0.00  0.00    -0.296 N 
ATOM     58  H   CYS A   9      19.800   0.765  24.739  0.00  0.00    +0.150 HD
BRANCH  57  59
ATOM     59  CA  CYS A   9      19.863  -1.359  25.191  0.00  0.00    +0.160 C 
BRANCH  59  60
ATOM     60  C   CYS A   9      19.903  -2.299  24.003  0.00  0.00    +0.242 C 
ATOM     61  O   CYS A   9      19.635  -3.495  24.170  0.00  0.00    -0.273 OA
ATOM     62  N   GLU A  10      20.176  -1.759  22.785  0.00  0.00    -0.298 N 
ATOM     63  H   GLU A  10      20.398  -0.744  22.742  0.00  0.00    +0.150 HD
BRANCH  62  64
ATOM     64  CA  GLU A  10      20.178  -2.516  21.528  0.00  0.00    +0.137 C 
BRANCH  64  65
ATOM     65  C   GLU A  10      20.789  -3.945  21.619  0.00  0.00    +0.227 C 
ATOM     66  O   GLU A  10      20.157  -4.883  21.108  0.00  0.00    -0.286 OA
ENDBRANCH  64  65
BRANCH  64  67
ATOM     67  CB  GLU A  10      20.814  -1.680  20.398  0.00  0.00    +0.039 C 
BRANCH  67  68
ATOM     68  CG  GLU A  10      21.148  -2.489  19.153  0.00  0.00    +0.116 C 
BRANCH  68  69
ATOM     69  CD  GLU A  10      20.236  -2.285  17.966  0.00  0.00    +0.365 C 
ATOM     70  OE2 GLU A  10      19.010  -2.132  18.170  0.00  0.00    -0.246 OA
ATOM     71  OE1 GLU A  10      20.743  -2.351  16.822  0.00  0.00    -0.246 OA
ENDBRANCH  68  69
ENDBRANCH  67  68
ENDBRANCH  64  67
ENDBRANCH  62  64
ENDBRANCH  59  60
BRANCH  59  72
ATOM     72  CB  CYS A   9      18.424  -1.182  25.654  0.00  0.00    +0.098 C 
ATOM     73  SG  CYS A   9      18.281  -0.575  27.339  0.00  0.00    -0.080 S 
ENDBRANCH  59  72
ENDBRANCH  57  59
ENDBRANCH  54  55
BRANCH  54  74
ATOM     74  CB  LEU A   8      23.034   2.361  25.412  0.00  0.00    +0.029 C 
BRANCH  74  75
ATOM     75  CG  LEU A   8      23.830   3.595  24.978  0.00  0.00    +0.002 C 
ATOM     76  CD2 LEU A   8      24.169   4.452  26.191  0.00  0.00    +0.000 C 
ATOM     77  CD1 LEU A   8      25.087   3.209  24.221  0.00  0.00    +0.000 C 
ENDBRANCH  74  75
ENDBRANCH  54  74
ENDBRANCH  51  54
ENDBRANCH  49  50
BRANCH  49  78
ATOM     78  CB  GLN A   7      20.002   4.340  21.549  0.00  0.00    +0.039 C 
BRANCH  78  79
ATOM     79  CG  GLN A   7      18.976   5.282  20.876  0.00  0.00    +0.087 C 
BRANCH  79  80
ATOM     80  CD  GLN A   7      19.636   6.560  20.404  0.00  0.00    +0.219 C 
ATOM     81  OE1 GLN A   7      20.782   6.856  20.761  0.00  0.00    -0.275 OA
ATOM     82  NE2 GLN A   7      18.905   7.387  19.652  0.00  0.00    -0.329 N 
ATOM     83 HE21 GLN A   7      17.943   7.115  19.364  0.00  0.00    +0.145 HD
ATOM     84 HE22 GLN A   7      19.298   8.303  19.354  0.00  0.00    +0.145 HD
ENDBRANCH  79  80
ENDBRANCH  78  79
ENDBRANCH  49  78
ENDBRANCH  47  49
ENDBRANCH   1  45
BRANCH   1  85
ATOM     85  CB  THR A   6      15.808   3.602  25.320  0.00  0.00    +0.137 C 
ATOM     86  CG2 THR A   6      14.908   2.531  24.802  0.00  0.00    +0.034 C 
BRANCH  85  87
ATOM     87  OG1 THR A   6      15.312   3.985  26.610  0.00  0.00    -0.382 OA
ATOM     88  HG1 THR A   6      15.876   4.712  26.977  0.00  0.00    +0.210 HD
ENDBRANCH  85  87
ENDBRANCH   1  85
TORSDOF 36
REMARK  Name = ../refined-set-2016/3t8v/3t8v_pocket.pdb
REMARK  279 active torsions:
REMARK  status: ('A' for Active; 'I' for Inactive)
REMARK    1  A    between atoms: _1  and  _3
REMARK    2  A    between atoms: _3  and  _4
REMARK    3  A    between atoms: _7  and  _9
REMARK    4  A    between atoms: _9  and  _10
REMARK    5  A    between atoms: _9  and  _12
REMARK    6  A    between atoms: _12  and  _13
REMARK    7  A    between atoms: _16  and  _18
REMARK    8  A    between atoms: _18  and  _19
REMARK    9  A    between atoms: _18  and  _21
REMARK   10  A    between atoms: _21  and  _22
REMARK   11  A    between atoms: _25  and  _27
REMARK   12  A    between atoms: _27  and  _28
REMARK   13  A    between atoms: _27  and  _30
REMARK   14  A    between atoms: _30  and  _31
REMARK   15  A    between atoms: _31  and  _32
REMARK   16  A    between atoms: _37  and  _39
REMARK   17  A    between atoms: _39  and  _40
REMARK   18  A    between atoms: _39  and  _42
REMARK   19  A    between atoms: _44  and  _46
REMARK   20  A    between atoms: _46  and  _47
REMARK   21  A    between atoms: _46  and  _49
REMARK   22  A    between atoms: _49  and  _50
REMARK   23  A    between atoms: _50  and  _51
REMARK   24  A    between atoms: _54  and  _56
REMARK   25  A    between atoms: _56  and  _57
REMARK   26  A    between atoms: _60  and  _62
REMARK   27  A    between atoms: _62  and  _63
REMARK   28  A    between atoms: _62  and  _65
REMARK   29  A    between atoms: _65  and  _66
REMARK   30  A    between atoms: _69  and  _71
REMARK   31  A    between atoms: _71  and  _72
REMARK   32  A    between atoms: _74  and  _76
REMARK   33  A    between atoms: _76  and  _77
REMARK   34  A    between atoms: _76  and  _79
REMARK   35  A    between atoms: _79  and  _80
REMARK   36  A    between atoms: _85  and  _86
REMARK   37  A    between atoms: _88  and  _90
REMARK   38  A    between atoms: _90  and  _91
REMARK   39  A    between atoms: _90  and  _93
REMARK   40  A    between atoms: _93  and  _94
REMARK   41  A    between atoms: _100  and  _102
REMARK   42  A    between atoms: _102  and  _103
REMARK   43  A    between atoms: _102  and  _105
REMARK   44  A    between atoms: _105  and  _106
REMARK   45  A    between atoms: _111  and  _113
REMARK   46  A    between atoms: _113  and  _114
REMARK   47  A    between atoms: _113  and  _116
REMARK   48  A    between atoms: _119  and  _121
REMARK   49  A    between atoms: _121  and  _122
REMARK   50  A    between atoms: _124  and  _126
REMARK   51  A    between atoms: _126  and  _127
REMARK   52  A    between atoms: _130  and  _132
REMARK   53  A    between atoms: _132  and  _133
REMARK   54  A    between atoms: _132  and  _135
REMARK   55  A    between atoms: _135  and  _136
REMARK   56  A    between atoms: _136  and  _137
REMARK   57  A    between atoms: _139  and  _141
REMARK   58  A    between atoms: _141  and  _142
REMARK   59  A    between atoms: _141  and  _144
REMARK   60  A    between atoms: _144  and  _145
REMARK   61  A    between atoms: _145  and  _146
REMARK   62  A    between atoms: _149  and  _151
REMARK   63  A    between atoms: _151  and  _152
REMARK   64  A    between atoms: _151  and  _154
REMARK   65  A    between atoms: _154  and  _155
REMARK   66  A    between atoms: _160  and  _162
REMARK   67  A    between atoms: _162  and  _163
REMARK   68  A    between atoms: _162  and  _165
REMARK   69  A    between atoms: _165  and  _166
REMARK   70  A    between atoms: _169  and  _171
REMARK   71  A    between atoms: _171  and  _172
REMARK   72  A    between atoms: _171  and  _174
REMARK   73  A    between atoms: _174  and  _175
REMARK   74  A    between atoms: _181  and  _183
REMARK   75  A    between atoms: _183  and  _184
REMARK   76  A    between atoms: _183  and  _186
REMARK   77  A    between atoms: _186  and  _187
REMARK   78  A    between atoms: _192  and  _194
REMARK   79  A    between atoms: _194  and  _195
REMARK   80  A    between atoms: _194  and  _197
REMARK   81  A    between atoms: _197  and  _198
REMARK   82  A    between atoms: _203  and  _205
REMARK   83  A    between atoms: _205  and  _206
REMARK   84  A    between atoms: _205  and  _208
REMARK   85  A    between atoms: _208  and  _209
REMARK   86  A    between atoms: _211  and  _213
REMARK   87  A    between atoms: _213  and  _214
REMARK   88  A    between atoms: _213  and  _216
REMARK   89  A    between atoms: _216  and  _217
REMARK   90  A    between atoms: _217  and  _218
REMARK   91  A    between atoms: _218  and  _219
REMARK   92  A    between atoms: _228  and  _230
REMARK   93  A    between atoms: _230  and  _231
REMARK   94  A    between atoms: _230  and  _233
REMARK   95  A    between atoms: _233  and  _234
REMARK   96  A    between atoms: _237  and  _239
REMARK   97  A    between atoms: _239  and  _240
REMARK   98  A    between atoms: _239  and  _242
REMARK   99  A    between atoms: _245  and  _247
REMARK  100  A    between atoms: _247  and  _248
REMARK  101  A    between atoms: _247  and  _250
REMARK  102  A    between atoms: _253  and  _255
REMARK  103  A    between atoms: _255  and  _256
REMARK  104  A    between atoms: _258  and  _260
REMARK  105  A    between atoms: _260  and  _261
REMARK  106  A    between atoms: _260  and  _263
REMARK  107  A    between atoms: _263  and  _264
REMARK  108  A    between atoms: _268  and  ZN_679
REMARK  109  A    between atoms: _269  and  _271
REMARK  110  A    between atoms: _271  and  _272
REMARK  111  A    between atoms: _271  and  _274
REMARK  112  A    between atoms: _274  and  _275
REMARK  113  A    between atoms: _275  and  _276
REMARK  114  A    between atoms: _279  and  _281
REMARK  115  A    between atoms: _281  and  _282
REMARK  116  A    between atoms: _281  and  _284
REMARK  117  A    between atoms: _284  and  _285
REMARK  118  A    between atoms: _290  and  _291
REMARK  119  A    between atoms: _293  and  _295
REMARK  120  A    between atoms: _295  and  _296
REMARK  121  A    between atoms: _295  and  _298
REMARK  122  A    between atoms: _298  and  _299
REMARK  123  A    between atoms: _303  and  ZN_679
REMARK  124  A    between atoms: _304  and  _306
REMARK  125  A    between atoms: _306  and  _307
REMARK  126  A    between atoms: _306  and  _309
REMARK  127  A    between atoms: _309  and  _310
REMARK  128  A    between atoms: _320  and  _322
REMARK  129  A    between atoms: _322  and  _323
REMARK  130  A    between atoms: _322  and  _325
REMARK  131  A    between atoms: _325  and  _326
REMARK  132  A    between atoms: _329  and  _331
REMARK  133  A    between atoms: _331  and  _332
REMARK  134  A    between atoms: _331  and  _334
REMARK  135  A    between atoms: _334  and  _335
REMARK  136  A    between atoms: _335  and  _336
REMARK  137  A    between atoms: _336  and  _337
REMARK  138  A    between atoms: _337  and  _338
REMARK  139  A    between atoms: _342  and  _344
REMARK  140  A    between atoms: _344  and  _345
REMARK  141  A    between atoms: _344  and  _347
REMARK  142  A    between atoms: _347  and  _348
REMARK  143  A    between atoms: _348  and  _349
REMARK  144  A    between atoms: _349  and  _350
REMARK  145  A    between atoms: _350  and  ZN_679
REMARK  146  A    between atoms: _352  and  _354
REMARK  147  A    between atoms: _354  and  _355
REMARK  148  A    between atoms: _354  and  _357
REMARK  149  A    between atoms: _357  and  _358
REMARK  150  A    between atoms: _361  and  _363
REMARK  151  A    between atoms: _363  and  _364
REMARK  152  A    between atoms: _363  and  _366
REMARK  153  A    between atoms: _369  and  _371
REMARK  154  A    between atoms: _371  and  _372
REMARK  155  A    between atoms: _371  and  _374
REMARK  156  A    between atoms: _374  and  _375
REMARK  157  A    between atoms: _375  and  _376
REMARK  158  A    between atoms: _379  and  _381
REMARK  159  A    between atoms: _381  and  _382
REMARK  160  A    between atoms: _381  and  _384
REMARK  161  A    between atoms: _384  and  _385
REMARK  162  A    between atoms: _385  and  _386
REMARK  163  A    between atoms: _389  and  _391
REMARK  164  A    between atoms: _391  and  _392
REMARK  165  A    between atoms: _391  and  _394
REMARK  166  A    between atoms: _394  and  _395
REMARK  167  A    between atoms: _398  and  _400
REMARK  168  A    between atoms: _400  and  _401
REMARK  169  A    between atoms: _400  and  _403
REMARK  170  A    between atoms: _403  and  _404
REMARK  171  A    between atoms: _409  and  _411
REMARK  172  A    between atoms: _411  and  _412
REMARK  173  A    between atoms: _411  and  _414
REMARK  174  A    between atoms: _414  and  _415
REMARK  175  A    between atoms: _417  and  _419
REMARK  176  A    between atoms: _419  and  _420
REMARK  177  A    between atoms: _419  and  _422
REMARK  178  A    between atoms: _422  and  _423
REMARK  179  A    between atoms: _423  and  _424
REMARK  180  A    between atoms: _426  and  _428
REMARK  181  A    between atoms: _428  and  _429
REMARK  182  A    between atoms: _432  and  _434
REMARK  183  A    between atoms: _434  and  _435
REMARK  184  A    between atoms: _434  and  _437
REMARK  185  A    between atoms: _437  and  _438
REMARK  186  A    between atoms: _443  and  _445
REMARK  187  A    between atoms: _445  and  _446
REMARK  188  A    between atoms: _445  and  _448
REMARK  189  A    between atoms: _448  and  _449
REMARK  190  A    between atoms: _455  and  _457
REMARK  191  A    between atoms: _457  and  _458
REMARK  192  A    between atoms: _457  and  _460
REMARK  193  A    between atoms: _460  and  _461
REMARK  194  A    between atoms: _466  and  _467
REMARK  195  A    between atoms: _469  and  _471
REMARK  196  A    between atoms: _471  and  _472
REMARK  197  A    between atoms: _471  and  _474
REMARK  198  A    between atoms: _474  and  _475
REMARK  199  A    between atoms: _478  and  _480
REMARK  200  A    between atoms: _480  and  _481
REMARK  201  A    between atoms: _480  and  _483
REMARK  202  A    between atoms: _483  and  _484
REMARK  203  A    between atoms: _487  and  _489
REMARK  204  A    between atoms: _489  and  _490
REMARK  205  A    between atoms: _489  and  _492
REMARK  206  A    between atoms: _492  and  _493
REMARK  207  A    between atoms: _496  and  _498
REMARK  208  A    between atoms: _498  and  _499
REMARK  209  A    between atoms: _498  and  _501
REMARK  210  A    between atoms: _501  and  _502
REMARK  211  A    between atoms: _507  and  _508
REMARK  212  A    between atoms: _510  and  _512
REMARK  213  A    between atoms: _512  and  _513
REMARK  214  A    between atoms: _512  and  _515
REMARK  215  A    between atoms: _515  and  _516
REMARK  216  A    between atoms: _519  and  _521
REMARK  217  A    between atoms: _521  and  _522
REMARK  218  A    between atoms: _521  and  _524
REMARK  219  A    between atoms: _524  and  _525
REMARK  220  A    between atoms: _525  and  _526
REMARK  221  A    between atoms: _526  and  _527
REMARK  222  A    between atoms: _536  and  _538
REMARK  223  A    between atoms: _538  and  _539
REMARK  224  A    between atoms: _538  and  _541
REMARK  225  A    between atoms: _541  and  _542
REMARK  226  A    between atoms: _548  and  _549
REMARK  227  A    between atoms: _554  and  _556
REMARK  228  A    between atoms: _556  and  _557
REMARK  229  A    between atoms: _556  and  _559
REMARK  230  A    between atoms: _559  and  _560
REMARK  231  A    between atoms: _560  and  _561
REMARK  232  A    between atoms: _563  and  _565
REMARK  233  A    between atoms: _565  and  _566
REMARK  234  A    between atoms: _565  and  _568
REMARK  235  A    between atoms: _571  and  _573
REMARK  236  A    between atoms: _573  and  _574
REMARK  237  A    between atoms: _577  and  _579
REMARK  238  A    between atoms: _579  and  _580
REMARK  239  A    between atoms: _579  and  _582
REMARK  240  A    between atoms: _582  and  _583
REMARK  241  A    between atoms: _586  and  _588
REMARK  242  A    between atoms: _588  and  _589
REMARK  243  A    between atoms: _588  and  _591
REMARK  244  A    between atoms: _591  and  _592
REMARK  245  A    between atoms: _592  and  _593
REMARK  246  A    between atoms: _598  and  _600
REMARK  247  A    between atoms: _600  and  _601
REMARK  248  A    between atoms: _600  and  _603
REMARK  249  A    between atoms: _603  and  _604
REMARK  250  A    between atoms: _607  and  _609
REMARK  251  A    between atoms: _609  and  _610
REMARK  252  A    between atoms: _609  and  _612
REMARK  253  A    between atoms: _614  and  _616
REMARK  254  A    between atoms: _616  and  _617
REMARK  255  A    between atoms: _616  and  _619
REMARK  256  A    between atoms: _619  and  _620
REMARK  257  A    between atoms: _620  and  _621
REMARK  258  A    between atoms: _624  and  _626
REMARK  259  A    between atoms: _626  and  _627
REMARK  260  A    between atoms: _626  and  _629
REMARK  261  A    between atoms: _629  and  _630
REMARK  262  A    between atoms: _630  and  _631
REMARK  263  A    between atoms: _631  and  _632
REMARK  264  A    between atoms: _632  and  _633
REMARK  265  A    between atoms: _637  and  _639
REMARK  266  A    between atoms: _639  and  _640
REMARK  267  A    between atoms: _639  and  _642
REMARK  268  A    between atoms: _642  and  _643
REMARK  269  A    between atoms: _648  and  _650
REMARK  270  A    between atoms: _650  and  _651
REMARK  271  A    between atoms: _650  and  _653
REMARK  272  A    between atoms: _653  and  _654
REMARK  273  A    between atoms: _659  and  _660
REMARK  274  A    between atoms: _662  and  _664
REMARK  275  A    between atoms: _664  and  _665
REMARK  276  A    between atoms: _664  and  _667
REMARK  277  A    between atoms: _667  and  _668
REMARK  278  A    between atoms: _668  and  _669
REMARK  279  A    between atoms: _669  and  _670
REMARK                            x       y       z     vdW  Elec       q    Type
REMARK                         _______ _______ _______ _____ _____    ______ ____
ROOT
ATOM      1  CG  LYS A   1      16.811  -4.892  21.119  0.00  0.00    -0.000 C 
ENDROOT
BRANCH   1   2
ATOM      2  CB  LYS A   1      17.140  -6.351  20.795  0.00  0.00    +0.025 C 
BRANCH   2   3
ATOM      3  CA  LYS A   1      17.252  -7.210  22.046  0.00  0.00    +0.133 C 
BRANCH   3   4
ATOM      4  N   LYS A   1      18.453  -6.867  22.817  0.00  0.00    -0.239 NA
ATOM      5  H   LYS A   1      19.112  -6.161  22.430  0.00  0.00    +0.142 HD
ENDBRANCH   3   4
BRANCH   3   6
ATOM      6  C   LYS A   1      17.119  -8.688  21.719  0.00  0.00    +0.224 C 
ATOM      7  O   LYS A   1      16.003  -9.199  21.658  0.00  0.00    -0.287 OA
ENDBRANCH   3   6
ENDBRANCH   2   3
ENDBRANCH   1   2
BRANCH   1   8
ATOM      8  CD  LYS A   1      16.807  -4.023  19.862  0.00  0.00    -0.024 C 
BRANCH   8   9
ATOM      9  CE  LYS A   1      15.455  -3.971  19.209  0.00  0.00    -0.086 C 
BRANCH   9  10
ATOM     10  NZ  LYS A   1      15.542  -3.321  17.878  0.00  0.00    +0.380 N 
ATOM     11  HZ1 LYS A   1      15.900  -2.351  17.990  0.00  0.00    -0.089 HD
ATOM     12  HZ2 LYS A   1      14.597  -3.295  17.444  0.00  0.00    -0.089 HD
ATOM     13  HZ3 LYS A   1      16.189  -3.863  17.271  0.00  0.00    -0.089 HD
ENDBRANCH   9  10
ENDBRANCH   8   9
ENDBRANCH   1   8
TORSDOF 7
REMARK  Name = ../refined-set-2016/3t8v/3t8v_pocket.pdb
REMARK  279 active torsions:
REMARK  status: ('A' for Active; 'I' for Inactive)
REMARK    1  A    between atoms: _1  and  _3
REMARK    2  A    between atoms: _3  and  _4
REMARK    3  A    between atoms: _7  and  _9
REMARK    4  A    between atoms: _9  and  _10
REMARK    5  A    between atoms: _9  and  _12
REMARK    6  A    between atoms: _12  and  _13
REMARK    7  A    between atoms: _16  and  _18
REMARK    8  A    between atoms: _18  and  _19
REMARK    9  A    between atoms: _18  and  _21
REMARK   10  A    between atoms: _21  and  _22
REMARK   11  A    between atoms: _25  and  _27
REMARK   12  A    between atoms: _27  and  _28
REMARK   13  A    between atoms: _27  and  _30
REMARK   14  A    between atoms: _30  and  _31
REMARK   15  A    between atoms: _31  and  _32
REMARK   16  A    between atoms: _37  and  _39
REMARK   17  A    between atoms: _39  and  _40
REMARK   18  A    between atoms: _39  and  _42
REMARK   19  A    between atoms: _44  and  _46
REMARK   20  A    between atoms: _46  and  _47
REMARK   21  A    between atoms: _46  and  _49
REMARK   22  A    between atoms: _49  and  _50
REMARK   23  A    between atoms: _50  and  _51
REMARK   24  A    between atoms: _54  and  _56
REMARK   25  A    between atoms: _56  and  _57
REMARK   26  A    between atoms: _60  and  _62
REMARK   27  A    between atoms: _62  and  _63
REMARK   28  A    between atoms: _62  and  _65
REMARK   29  A    between atoms: _65  and  _66
REMARK   30  A    between atoms: _69  and  _71
REMARK   31  A    between atoms: _71  and  _72
REMARK   32  A    between atoms: _74  and  _76
REMARK   33  A    between atoms: _76  and  _77
REMARK   34  A    between atoms: _76  and  _79
REMARK   35  A    between atoms: _79  and  _80
REMARK   36  A    between atoms: _85  and  _86
REMARK   37  A    between atoms: _88  and  _90
REMARK   38  A    between atoms: _90  and  _91
REMARK   39  A    between atoms: _90  and  _93
REMARK   40  A    between atoms: _93  and  _94
REMARK   41  A    between atoms: _100  and  _102
REMARK   42  A    between atoms: _102  and  _103
REMARK   43  A    between atoms: _102  and  _105
REMARK   44  A    between atoms: _105  and  _106
REMARK   45  A    between atoms: _111  and  _113
REMARK   46  A    between atoms: _113  and  _114
REMARK   47  A    between atoms: _113  and  _116
REMARK   48  A    between atoms: _119  and  _121
REMARK   49  A    between atoms: _121  and  _122
REMARK   50  A    between atoms: _124  and  _126
REMARK   51  A    between atoms: _126  and  _127
REMARK   52  A    between atoms: _130  and  _132
REMARK   53  A    between atoms: _132  and  _133
REMARK   54  A    between atoms: _132  and  _135
REMARK   55  A    between atoms: _135  and  _136
REMARK   56  A    between atoms: _136  and  _137
REMARK   57  A    between atoms: _139  and  _141
REMARK   58  A    between atoms: _141  and  _142
REMARK   59  A    between atoms: _141  and  _144
REMARK   60  A    between atoms: _144  and  _145
REMARK   61  A    between atoms: _145  and  _146
REMARK   62  A    between atoms: _149  and  _151
REMARK   63  A    between atoms: _151  and  _152
REMARK   64  A    between atoms: _151  and  _154
REMARK   65  A    between atoms: _154  and  _155
REMARK   66  A    between atoms: _160  and  _162
REMARK   67  A    between atoms: _162  and  _163
REMARK   68  A    between atoms: _162  and  _165
REMARK   69  A    between atoms: _165  and  _166
REMARK   70  A    between atoms: _169  and  _171
REMARK   71  A    between atoms: _171  and  _172
REMARK   72  A    between atoms: _171  and  _174
REMARK   73  A    between atoms: _174  and  _175
REMARK   74  A    between atoms: _181  and  _183
REMARK   75  A    between atoms: _183  and  _184
REMARK   76  A    between atoms: _183  and  _186
REMARK   77  A    between atoms: _186  and  _187
REMARK   78  A    between atoms: _192  and  _194
REMARK   79  A    between atoms: _194  and  _195
REMARK   80  A    between atoms: _194  and  _197
REMARK   81  A    between atoms: _197  and  _198
REMARK   82  A    between atoms: _203  and  _205
REMARK   83  A    between atoms: _205  and  _206
REMARK   84  A    between atoms: _205  and  _208
REMARK   85  A    between atoms: _208  and  _209
REMARK   86  A    between atoms: _211  and  _213
REMARK   87  A    between atoms: _213  and  _214
REMARK   88  A    between atoms: _213  and  _216
REMARK   89  A    between atoms: _216  and  _217
REMARK   90  A    between atoms: _217  and  _218
REMARK   91  A    between atoms: _218  and  _219
REMARK   92  A    between atoms: _228  and  _230
REMARK   93  A    between atoms: _230  and  _231
REMARK   94  A    between atoms: _230  and  _233
REMARK   95  A    between atoms: _233  and  _234
REMARK   96  A    between atoms: _237  and  _239
REMARK   97  A    between atoms: _239  and  _240
REMARK   98  A    between atoms: _239  and  _242
REMARK   99  A    between atoms: _245  and  _247
REMARK  100  A    between atoms: _247  and  _248
REMARK  101  A    between atoms: _247  and  _250
REMARK  102  A    between atoms: _253  and  _255
REMARK  103  A    between atoms: _255  and  _256
REMARK  104  A    between atoms: _258  and  _260
REMARK  105  A    between atoms: _260  and  _261
REMARK  106  A    between atoms: _260  and  _263
REMARK  107  A    between atoms: _263  and  _264
REMARK  108  A    between atoms: _268  and  ZN_679
REMARK  109  A    between atoms: _269  and  _271
REMARK  110  A    between atoms: _271  and  _272
REMARK  111  A    between atoms: _271  and  _274
REMARK  112  A    between atoms: _274  and  _275
REMARK  113  A    between atoms: _275  and  _276
REMARK  114  A    between atoms: _279  and  _281
REMARK  115  A    between atoms: _281  and  _282
REMARK  116  A    between atoms: _281  and  _284
REMARK  117  A    between atoms: _284  and  _285
REMARK  118  A    between atoms: _290  and  _291
REMARK  119  A    between atoms: _293  and  _295
REMARK  120  A    between atoms: _295  and  _296
REMARK  121  A    between atoms: _295  and  _298
REMARK  122  A    between atoms: _298  and  _299
REMARK  123  A    between atoms: _303  and  ZN_679
REMARK  124  A    between atoms: _304  and  _306
REMARK  125  A    between atoms: _306  and  _307
REMARK  126  A    between atoms: _306  and  _309
REMARK  127  A    between atoms: _309  and  _310
REMARK  128  A    between atoms: _320  and  _322
REMARK  129  A    between atoms: _322  and  _323
REMARK  130  A    between atoms: _322  and  _325
REMARK  131  A    between atoms: _325  and  _326
REMARK  132  A    between atoms: _329  and  _331
REMARK  133  A    between atoms: _331  and  _332
REMARK  134  A    between atoms: _331  and  _334
REMARK  135  A    between atoms: _334  and  _335
REMARK  136  A    between atoms: _335  and  _336
REMARK  137  A    between atoms: _336  and  _337
REMARK  138  A    between atoms: _337  and  _338
REMARK  139  A    between atoms: _342  and  _344
REMARK  140  A    between atoms: _344  and  _345
REMARK  141  A    between atoms: _344  and  _347
REMARK  142  A    between atoms: _347  and  _348
REMARK  143  A    between atoms: _348  and  _349
REMARK  144  A    between atoms: _349  and  _350
REMARK  145  A    between atoms: _350  and  ZN_679
REMARK  146  A    between atoms: _352  and  _354
REMARK  147  A    between atoms: _354  and  _355
REMARK  148  A    between atoms: _354  and  _357
REMARK  149  A    between atoms: _357  and  _358
REMARK  150  A    between atoms: _361  and  _363
REMARK  151  A    between atoms: _363  and  _364
REMARK  152  A    between atoms: _363  and  _366
REMARK  153  A    between atoms: _369  and  _371
REMARK  154  A    between atoms: _371  and  _372
REMARK  155  A    between atoms: _371  and  _374
REMARK  156  A    between atoms: _374  and  _375
REMARK  157  A    between atoms: _375  and  _376
REMARK  158  A    between atoms: _379  and  _381
REMARK  159  A    between atoms: _381  and  _382
REMARK  160  A    between atoms: _381  and  _384
REMARK  161  A    between atoms: _384  and  _385
REMARK  162  A    between atoms: _385  and  _386
REMARK  163  A    between atoms: _389  and  _391
REMARK  164  A    between atoms: _391  and  _392
REMARK  165  A    between atoms: _391  and  _394
REMARK  166  A    between atoms: _394  and  _395
REMARK  167  A    between atoms: _398  and  _400
REMARK  168  A    between atoms: _400  and  _401
REMARK  169  A    between atoms: _400  and  _403
REMARK  170  A    between atoms: _403  and  _404
REMARK  171  A    between atoms: _409  and  _411
REMARK  172  A    between atoms: _411  and  _412
REMARK  173  A    between atoms: _411  and  _414
REMARK  174  A    between atoms: _414  and  _415
REMARK  175  A    between atoms: _417  and  _419
REMARK  176  A    between atoms: _419  and  _420
REMARK  177  A    between atoms: _419  and  _422
REMARK  178  A    between atoms: _422  and  _423
REMARK  179  A    between atoms: _423  and  _424
REMARK  180  A    between atoms: _426  and  _428
REMARK  181  A    between atoms: _428  and  _429
REMARK  182  A    between atoms: _432  and  _434
REMARK  183  A    between atoms: _434  and  _435
REMARK  184  A    between atoms: _434  and  _437
REMARK  185  A    between atoms: _437  and  _438
REMARK  186  A    between atoms: _443  and  _445
REMARK  187  A    between atoms: _445  and  _446
REMARK  188  A    between atoms: _445  and  _448
REMARK  189  A    between atoms: _448  and  _449
REMARK  190  A    between atoms: _455  and  _457
REMARK  191  A    between atoms: _457  and  _458
REMARK  192  A    between atoms: _457  and  _460
REMARK  193  A    between atoms: _460  and  _461
REMARK  194  A    between atoms: _466  and  _467
REMARK  195  A    between atoms: _469  and  _471
REMARK  196  A    between atoms: _471  and  _472
REMARK  197  A    between atoms: _471  and  _474
REMARK  198  A    between atoms: _474  and  _475
REMARK  199  A    between atoms: _478  and  _480
REMARK  200  A    between atoms: _480  and  _481
REMARK  201  A    between atoms: _480  and  _483
REMARK  202  A    between atoms: _483  and  _484
REMARK  203  A    between atoms: _487  and  _489
REMARK  204  A    between atoms: _489  and  _490
REMARK  205  A    between atoms: _489  and  _492
REMARK  206  A    between atoms: _492  and  _493
REMARK  207  A    between atoms: _496  and  _498
REMARK  208  A    between atoms: _498  and  _499
REMARK  209  A    between atoms: _498  and  _501
REMARK  210  A    between atoms: _501  and  _502
REMARK  211  A    between atoms: _507  and  _508
REMARK  212  A    between atoms: _510  and  _512
REMARK  213  A    between atoms: _512  and  _513
REMARK  214  A    between atoms: _512  and  _515
REMARK  215  A    between atoms: _515  and  _516
REMARK  216  A    between atoms: _519  and  _521
REMARK  217  A    between atoms: _521  and  _522
REMARK  218  A    between atoms: _521  and  _524
REMARK  219  A    between atoms: _524  and  _525
REMARK  220  A    between atoms: _525  and  _526
REMARK  221  A    between atoms: _526  and  _527
REMARK  222  A    between atoms: _536  and  _538
REMARK  223  A    between atoms: _538  and  _539
REMARK  224  A    between atoms: _538  and  _541
REMARK  225  A    between atoms: _541  and  _542
REMARK  226  A    between atoms: _548  and  _549
REMARK  227  A    between atoms: _554  and  _556
REMARK  228  A    between atoms: _556  and  _557
REMARK  229  A    between atoms: _556  and  _559
REMARK  230  A    between atoms: _559  and  _560
REMARK  231  A    between atoms: _560  and  _561
REMARK  232  A    between atoms: _563  and  _565
REMARK  233  A    between atoms: _565  and  _566
REMARK  234  A    between atoms: _565  and  _568
REMARK  235  A    between atoms: _571  and  _573
REMARK  236  A    between atoms: _573  and  _574
REMARK  237  A    between atoms: _577  and  _579
REMARK  238  A    between atoms: _579  and  _580
REMARK  239  A    between atoms: _579  and  _582
REMARK  240  A    between atoms: _582  and  _583
REMARK  241  A    between atoms: _586  and  _588
REMARK  242  A    between atoms: _588  and  _589
REMARK  243  A    between atoms: _588  and  _591
REMARK  244  A    between atoms: _591  and  _592
REMARK  245  A    between atoms: _592  and  _593
REMARK  246  A    between atoms: _598  and  _600
REMARK  247  A    between atoms: _600  and  _601
REMARK  248  A    between atoms: _600  and  _603
REMARK  249  A    between atoms: _603  and  _604
REMARK  250  A    between atoms: _607  and  _609
REMARK  251  A    between atoms: _609  and  _610
REMARK  252  A    between atoms: _609  and  _612
REMARK  253  A    between atoms: _614  and  _616
REMARK  254  A    between atoms: _616  and  _617
REMARK  255  A    between atoms: _616  and  _619
REMARK  256  A    between atoms: _619  and  _620
REMARK  257  A    between atoms: _620  and  _621
REMARK  258  A    between atoms: _624  and  _626
REMARK  259  A    between atoms: _626  and  _627
REMARK  260  A    between atoms: _626  and  _629
REMARK  261  A    between atoms: _629  and  _630
REMARK  262  A    between atoms: _630  and  _631
REMARK  263  A    between atoms: _631  and  _632
REMARK  264  A    between atoms: _632  and  _633
REMARK  265  A    between atoms: _637  and  _639
REMARK  266  A    between atoms: _639  and  _640
REMARK  267  A    between atoms: _639  and  _642
REMARK  268  A    between atoms: _642  and  _643
REMARK  269  A    between atoms: _648  and  _650
REMARK  270  A    between atoms: _650  and  _651
REMARK  271  A    between atoms: _650  and  _653
REMARK  272  A    between atoms: _653  and  _654
REMARK  273  A    between atoms: _659  and  _660
REMARK  274  A    between atoms: _662  and  _664
REMARK  275  A    between atoms: _664  and  _665
REMARK  276  A    between atoms: _664  and  _667
REMARK  277  A    between atoms: _667  and  _668
REMARK  278  A    between atoms: _668  and  _669
REMARK  279  A    between atoms: _669  and  _670
REMARK                            x       y       z     vdW  Elec       q    Type
REMARK                         _______ _______ _______ _____ _____    ______ ____
ROOT
ATOM      1  CB  ASN A   1      12.307   6.318  27.953  0.00  0.00    +0.110 C 
ENDROOT
BRANCH   1   2
ATOM      2  CG  ASN A   1      11.582   7.407  27.235  0.00  0.00    +0.221 C 
ATOM      3  ND2 ASN A   1      11.392   8.520  27.908  0.00  0.00    -0.329 N 
ATOM      4 HD21 ASN A   1      11.727   8.598  28.890  0.00  0.00    +0.145 HD
ATOM      5 HD22 ASN A   1      10.907   9.323  27.459  0.00  0.00    +0.145 HD
ATOM      6  OD1 ASN A   1      11.203   7.267  26.068  0.00  0.00    -0.275 OA
ENDBRANCH   1   2
BRANCH   1   7
ATOM      7  CA  ASN A   1      11.383   5.355  28.701  0.00  0.00    +0.142 C 
BRANCH   7   8
ATOM      8  N   ASN A   1      10.975   5.922  30.000  0.00  0.00    -0.239 NA
ATOM      9  H   ASN A   1      11.376   6.838  30.285  0.00  0.00    +0.142 HD
ENDBRANCH   7   8
BRANCH   7  10
ATOM     10  C   ASN A   1      12.111   4.047  28.871  0.00  0.00    +0.225 C 
ATOM     11  O   ASN A   1      11.748   3.046  28.237  0.00  0.00    -0.287 OA
ENDBRANCH   7  10
ENDBRANCH   1   7
TORSDOF 4
REMARK  Name = ../refined-set-2016/3t8v/3t8v_pocket.pdb
REMARK  279 active torsions:
REMARK  status: ('A' for Active; 'I' for Inactive)
REMARK    1  A    between atoms: _1  and  _3
REMARK    2  A    between atoms: _3  and  _4
REMARK    3  A    between atoms: _7  and  _9
REMARK    4  A    between atoms: _9  and  _10
REMARK    5  A    between atoms: _9  and  _12
REMARK    6  A    between atoms: _12  and  _13
REMARK    7  A    between atoms: _16  and  _18
REMARK    8  A    between atoms: _18  and  _19
REMARK    9  A    between atoms: _18  and  _21
REMARK   10  A    between atoms: _21  and  _22
REMARK   11  A    between atoms: _25  and  _27
REMARK   12  A    between atoms: _27  and  _28
REMARK   13  A    between atoms: _27  and  _30
REMARK   14  A    between atoms: _30  and  _31
REMARK   15  A    between atoms: _31  and  _32
REMARK   16  A    between atoms: _37  and  _39
REMARK   17  A    between atoms: _39  and  _40
REMARK   18  A    between atoms: _39  and  _42
REMARK   19  A    between atoms: _44  and  _46
REMARK   20  A    between atoms: _46  and  _47
REMARK   21  A    between atoms: _46  and  _49
REMARK   22  A    between atoms: _49  and  _50
REMARK   23  A    between atoms: _50  and  _51
REMARK   24  A    between atoms: _54  and  _56
REMARK   25  A    between atoms: _56  and  _57
REMARK   26  A    between atoms: _60  and  _62
REMARK   27  A    between atoms: _62  and  _63
REMARK   28  A    between atoms: _62  and  _65
REMARK   29  A    between atoms: _65  and  _66
REMARK   30  A    between atoms: _69  and  _71
REMARK   31  A    between atoms: _71  and  _72
REMARK   32  A    between atoms: _74  and  _76
REMARK   33  A    between atoms: _76  and  _77
REMARK   34  A    between atoms: _76  and  _79
REMARK   35  A    between atoms: _79  and  _80
REMARK   36  A    between atoms: _85  and  _86
REMARK   37  A    between atoms: _88  and  _90
REMARK   38  A    between atoms: _90  and  _91
REMARK   39  A    between atoms: _90  and  _93
REMARK   40  A    between atoms: _93  and  _94
REMARK   41  A    between atoms: _100  and  _102
REMARK   42  A    between atoms: _102  and  _103
REMARK   43  A    between atoms: _102  and  _105
REMARK   44  A    between atoms: _105  and  _106
REMARK   45  A    between atoms: _111  and  _113
REMARK   46  A    between atoms: _113  and  _114
REMARK   47  A    between atoms: _113  and  _116
REMARK   48  A    between atoms: _119  and  _121
REMARK   49  A    between atoms: _121  and  _122
REMARK   50  A    between atoms: _124  and  _126
REMARK   51  A    between atoms: _126  and  _127
REMARK   52  A    between atoms: _130  and  _132
REMARK   53  A    between atoms: _132  and  _133
REMARK   54  A    between atoms: _132  and  _135
REMARK   55  A    between atoms: _135  and  _136
REMARK   56  A    between atoms: _136  and  _137
REMARK   57  A    between atoms: _139  and  _141
REMARK   58  A    between atoms: _141  and  _142
REMARK   59  A    between atoms: _141  and  _144
REMARK   60  A    between atoms: _144  and  _145
REMARK   61  A    between atoms: _145  and  _146
REMARK   62  A    between atoms: _149  and  _151
REMARK   63  A    between atoms: _151  and  _152
REMARK   64  A    between atoms: _151  and  _154
REMARK   65  A    between atoms: _154  and  _155
REMARK   66  A    between atoms: _160  and  _162
REMARK   67  A    between atoms: _162  and  _163
REMARK   68  A    between atoms: _162  and  _165
REMARK   69  A    between atoms: _165  and  _166
REMARK   70  A    between atoms: _169  and  _171
REMARK   71  A    between atoms: _171  and  _172
REMARK   72  A    between atoms: _171  and  _174
REMARK   73  A    between atoms: _174  and  _175
REMARK   74  A    between atoms: _181  and  _183
REMARK   75  A    between atoms: _183  and  _184
REMARK   76  A    between atoms: _183  and  _186
REMARK   77  A    between atoms: _186  and  _187
REMARK   78  A    between atoms: _192  and  _194
REMARK   79  A    between atoms: _194  and  _195
REMARK   80  A    between atoms: _194  and  _197
REMARK   81  A    between atoms: _197  and  _198
REMARK   82  A    between atoms: _203  and  _205
REMARK   83  A    between atoms: _205  and  _206
REMARK   84  A    between atoms: _205  and  _208
REMARK   85  A    between atoms: _208  and  _209
REMARK   86  A    between atoms: _211  and  _213
REMARK   87  A    between atoms: _213  and  _214
REMARK   88  A    between atoms: _213  and  _216
REMARK   89  A    between atoms: _216  and  _217
REMARK   90  A    between atoms: _217  and  _218
REMARK   91  A    between atoms: _218  and  _219
REMARK   92  A    between atoms: _228  and  _230
REMARK   93  A    between atoms: _230  and  _231
REMARK   94  A    between atoms: _230  and  _233
REMARK   95  A    between atoms: _233  and  _234
REMARK   96  A    between atoms: _237  and  _239
REMARK   97  A    between atoms: _239  and  _240
REMARK   98  A    between atoms: _239  and  _242
REMARK   99  A    between atoms: _245  and  _247
REMARK  100  A    between atoms: _247  and  _248
REMARK  101  A    between atoms: _247  and  _250
REMARK  102  A    between atoms: _253  and  _255
REMARK  103  A    between atoms: _255  and  _256
REMARK  104  A    between atoms: _258  and  _260
REMARK  105  A    between atoms: _260  and  _261
REMARK  106  A    between atoms: _260  and  _263
REMARK  107  A    between atoms: _263  and  _264
REMARK  108  A    between atoms: _268  and  ZN_679
REMARK  109  A    between atoms: _269  and  _271
REMARK  110  A    between atoms: _271  and  _272
REMARK  111  A    between atoms: _271  and  _274
REMARK  112  A    between atoms: _274  and  _275
REMARK  113  A    between atoms: _275  and  _276
REMARK  114  A    between atoms: _279  and  _281
REMARK  115  A    between atoms: _281  and  _282
REMARK  116  A    between atoms: _281  and  _284
REMARK  117  A    between atoms: _284  and  _285
REMARK  118  A    between atoms: _290  and  _291
REMARK  119  A    between atoms: _293  and  _295
REMARK  120  A    between atoms: _295  and  _296
REMARK  121  A    between atoms: _295  and  _298
REMARK  122  A    between atoms: _298  and  _299
REMARK  123  A    between atoms: _303  and  ZN_679
REMARK  124  A    between atoms: _304  and  _306
REMARK  125  A    between atoms: _306  and  _307
REMARK  126  A    between atoms: _306  and  _309
REMARK  127  A    between atoms: _309  and  _310
REMARK  128  A    between atoms: _320  and  _322
REMARK  129  A    between atoms: _322  and  _323
REMARK  130  A    between atoms: _322  and  _325
REMARK  131  A    between atoms: _325  and  _326
REMARK  132  A    between atoms: _329  and  _331
REMARK  133  A    between atoms: _331  and  _332
REMARK  134  A    between atoms: _331  and  _334
REMARK  135  A    between atoms: _334  and  _335
REMARK  136  A    between atoms: _335  and  _336
REMARK  137  A    between atoms: _336  and  _337
REMARK  138  A    between atoms: _337  and  _338
REMARK  139  A    between atoms: _342  and  _344
REMARK  140  A    between atoms: _344  and  _345
REMARK  141  A    between atoms: _344  and  _347
REMARK  142  A    between atoms: _347  and  _348
REMARK  143  A    between atoms: _348  and  _349
REMARK  144  A    between atoms: _349  and  _350
REMARK  145  A    between atoms: _350  and  ZN_679
REMARK  146  A    between atoms: _352  and  _354
REMARK  147  A    between atoms: _354  and  _355
REMARK  148  A    between atoms: _354  and  _357
REMARK  149  A    between atoms: _357  and  _358
REMARK  150  A    between atoms: _361  and  _363
REMARK  151  A    between atoms: _363  and  _364
REMARK  152  A    between atoms: _363  and  _366
REMARK  153  A    between atoms: _369  and  _371
REMARK  154  A    between atoms: _371  and  _372
REMARK  155  A    between atoms: _371  and  _374
REMARK  156  A    between atoms: _374  and  _375
REMARK  157  A    between atoms: _375  and  _376
REMARK  158  A    between atoms: _379  and  _381
REMARK  159  A    between atoms: _381  and  _382
REMARK  160  A    between atoms: _381  and  _384
REMARK  161  A    between atoms: _384  and  _385
REMARK  162  A    between atoms: _385  and  _386
REMARK  163  A    between atoms: _389  and  _391
REMARK  164  A    between atoms: _391  and  _392
REMARK  165  A    between atoms: _391  and  _394
REMARK  166  A    between atoms: _394  and  _395
REMARK  167  A    between atoms: _398  and  _400
REMARK  168  A    between atoms: _400  and  _401
REMARK  169  A    between atoms: _400  and  _403
REMARK  170  A    between atoms: _403  and  _404
REMARK  171  A    between atoms: _409  and  _411
REMARK  172  A    between atoms: _411  and  _412
REMARK  173  A    between atoms: _411  and  _414
REMARK  174  A    between atoms: _414  and  _415
REMARK  175  A    between atoms: _417  and  _419
REMARK  176  A    between atoms: _419  and  _420
REMARK  177  A    between atoms: _419  and  _422
REMARK  178  A    between atoms: _422  and  _423
REMARK  179  A    between atoms: _423  and  _424
REMARK  180  A    between atoms: _426  and  _428
REMARK  181  A    between atoms: _428  and  _429
REMARK  182  A    between atoms: _432  and  _434
REMARK  183  A    between atoms: _434  and  _435
REMARK  184  A    between atoms: _434  and  _437
REMARK  185  A    between atoms: _437  and  _438
REMARK  186  A    between atoms: _443  and  _445
REMARK  187  A    between atoms: _445  and  _446
REMARK  188  A    between atoms: _445  and  _448
REMARK  189  A    between atoms: _448  and  _449
REMARK  190  A    between atoms: _455  and  _457
REMARK  191  A    between atoms: _457  and  _458
REMARK  192  A    between atoms: _457  and  _460
REMARK  193  A    between atoms: _460  and  _461
REMARK  194  A    between atoms: _466  and  _467
REMARK  195  A    between atoms: _469  and  _471
REMARK  196  A    between atoms: _471  and  _472
REMARK  197  A    between atoms: _471  and  _474
REMARK  198  A    between atoms: _474  and  _475
REMARK  199  A    between atoms: _478  and  _480
REMARK  200  A    between atoms: _480  and  _481
REMARK  201  A    between atoms: _480  and  _483
REMARK  202  A    between atoms: _483  and  _484
REMARK  203  A    between atoms: _487  and  _489
REMARK  204  A    between atoms: _489  and  _490
REMARK  205  A    between atoms: _489  and  _492
REMARK  206  A    between atoms: _492  and  _493
REMARK  207  A    between atoms: _496  and  _498
REMARK  208  A    between atoms: _498  and  _499
REMARK  209  A    between atoms: _498  and  _501
REMARK  210  A    between atoms: _501  and  _502
REMARK  211  A    between atoms: _507  and  _508
REMARK  212  A    between atoms: _510  and  _512
REMARK  213  A    between atoms: _512  and  _513
REMARK  214  A    between atoms: _512  and  _515
REMARK  215  A    between atoms: _515  and  _516
REMARK  216  A    between atoms: _519  and  _521
REMARK  217  A    between atoms: _521  and  _522
REMARK  218  A    between atoms: _521  and  _524
REMARK  219  A    between atoms: _524  and  _525
REMARK  220  A    between atoms: _525  and  _526
REMARK  221  A    between atoms: _526  and  _527
REMARK  222  A    between atoms: _536  and  _538
REMARK  223  A    between atoms: _538  and  _539
REMARK  224  A    between atoms: _538  and  _541
REMARK  225  A    between atoms: _541  and  _542
REMARK  226  A    between atoms: _548  and  _549
REMARK  227  A    between atoms: _554  and  _556
REMARK  228  A    between atoms: _556  and  _557
REMARK  229  A    between atoms: _556  and  _559
REMARK  230  A    between atoms: _559  and  _560
REMARK  231  A    between atoms: _560  and  _561
REMARK  232  A    between atoms: _563  and  _565
REMARK  233  A    between atoms: _565  and  _566
REMARK  234  A    between atoms: _565  and  _568
REMARK  235  A    between atoms: _571  and  _573
REMARK  236  A    between atoms: _573  and  _574
REMARK  237  A    between atoms: _577  and  _579
REMARK  238  A    between atoms: _579  and  _580
REMARK  239  A    between atoms: _579  and  _582
REMARK  240  A    between atoms: _582  and  _583
REMARK  241  A    between atoms: _586  and  _588
REMARK  242  A    between atoms: _588  and  _589
REMARK  243  A    between atoms: _588  and  _591
REMARK  244  A    between atoms: _591  and  _592
REMARK  245  A    between atoms: _592  and  _593
REMARK  246  A    between atoms: _598  and  _600
REMARK  247  A    between atoms: _600  and  _601
REMARK  248  A    between atoms: _600  and  _603
REMARK  249  A    between atoms: _603  and  _604
REMARK  250  A    between atoms: _607  and  _609
REMARK  251  A    between atoms: _609  and  _610
REMARK  252  A    between atoms: _609  and  _612
REMARK  253  A    between atoms: _614  and  _616
REMARK  254  A    between atoms: _616  and  _617
REMARK  255  A    between atoms: _616  and  _619
REMARK  256  A    between atoms: _619  and  _620
REMARK  257  A    between atoms: _620  and  _621
REMARK  258  A    between atoms: _624  and  _626
REMARK  259  A    between atoms: _626  and  _627
REMARK  260  A    between atoms: _626  and  _629
REMARK  261  A    between atoms: _629  and  _630
REMARK  262  A    between atoms: _630  and  _631
REMARK  263  A    between atoms: _631  and  _632
REMARK  264  A    between atoms: _632  and  _633
REMARK  265  A    between atoms: _637  and  _639
REMARK  266  A    between atoms: _639  and  _640
REMARK  267  A    between atoms: _639  and  _642
REMARK  268  A    between atoms: _642  and  _643
REMARK  269  A    between atoms: _648  and  _650
REMARK  270  A    between atoms: _650  and  _651
REMARK  271  A    between atoms: _650  and  _653
REMARK  272  A    between atoms: _653  and  _654
REMARK  273  A    between atoms: _659  and  _660
REMARK  274  A    between atoms: _662  and  _664
REMARK  275  A    between atoms: _664  and  _665
REMARK  276  A    between atoms: _664  and  _667
REMARK  277  A    between atoms: _667  and  _668
REMARK  278  A    between atoms: _668  and  _669
REMARK  279  A    between atoms: _669  and  _670
REMARK                            x       y       z     vdW  Elec       q    Type
REMARK                         _______ _______ _______ _____ _____    ______ ____
ROOT
ATOM      1  CG  TYR A   1      13.265  -0.414  25.384  0.00  0.00    -0.020 A 
ATOM      2  CD2 TYR A   1      14.476  -1.100  25.390  0.00  0.00    -0.001 A 
ATOM      3  CE2 TYR A   1      15.060  -1.547  24.204  0.00  0.00    +0.036 A 
ATOM      4  CZ  TYR A   1      14.442  -1.287  22.994  0.00  0.00    +0.134 A 
ATOM      5  CE1 TYR A   1      13.232  -0.612  22.965  0.00  0.00    +0.036 A 
ATOM      6  CD1 TYR A   1      12.664  -0.160  24.152  0.00  0.00    -0.001 A 
ENDROOT
BRANCH   4   7
ATOM      7  OH  TYR A   1      14.991  -1.751  21.822  0.00  0.00    -0.506 OA
ATOM      8  HH  TYR A   1      15.899  -1.372  21.711  0.00  0.00    +0.292 HD
ENDBRANCH   4   7
BRANCH   1   9
ATOM      9  CB  TYR A   1      12.678   0.132  26.659  0.00  0.00    +0.051 C 
BRANCH   9  10
ATOM     10  CA  TYR A   1      11.471  -0.658  27.140  0.00  0.00    +0.137 C 
BRANCH  10  11
ATOM     11  N   TYR A   1      10.700   0.120  28.096  0.00  0.00    -0.239 NA
ATOM     12  H   TYR A   1      11.078   1.034  28.416  0.00  0.00    +0.142 HD
ENDBRANCH  10  11
BRANCH  10  13
ATOM     13  C   TYR A   1      11.920  -1.977  27.751  0.00  0.00    +0.224 C 
ATOM     14  O   TYR A   1      11.730  -3.016  27.116  0.00  0.00    -0.287 OA
ENDBRANCH  10  13
ENDBRANCH   9  10
ENDBRANCH   1   9
TORSDOF 5
REMARK  Name = ../refined-set-2016/3t8v/3t8v_pocket.pdb
REMARK  279 active torsions:
REMARK  status: ('A' for Active; 'I' for Inactive)
REMARK    1  A    between atoms: _1  and  _3
REMARK    2  A    between atoms: _3  and  _4
REMARK    3  A    between atoms: _7  and  _9
REMARK    4  A    between atoms: _9  and  _10
REMARK    5  A    between atoms: _9  and  _12
REMARK    6  A    between atoms: _12  and  _13
REMARK    7  A    between atoms: _16  and  _18
REMARK    8  A    between atoms: _18  and  _19
REMARK    9  A    between atoms: _18  and  _21
REMARK   10  A    between atoms: _21  and  _22
REMARK   11  A    between atoms: _25  and  _27
REMARK   12  A    between atoms: _27  and  _28
REMARK   13  A    between atoms: _27  and  _30
REMARK   14  A    between atoms: _30  and  _31
REMARK   15  A    between atoms: _31  and  _32
REMARK   16  A    between atoms: _37  and  _39
REMARK   17  A    between atoms: _39  and  _40
REMARK   18  A    between atoms: _39  and  _42
REMARK   19  A    between atoms: _44  and  _46
REMARK   20  A    between atoms: _46  and  _47
REMARK   21  A    between atoms: _46  and  _49
REMARK   22  A    between atoms: _49  and  _50
REMARK   23  A    between atoms: _50  and  _51
REMARK   24  A    between atoms: _54  and  _56
REMARK   25  A    between atoms: _56  and  _57
REMARK   26  A    between atoms: _60  and  _62
REMARK   27  A    between atoms: _62  and  _63
REMARK   28  A    between atoms: _62  and  _65
REMARK   29  A    between atoms: _65  and  _66
REMARK   30  A    between atoms: _69  and  _71
REMARK   31  A    between atoms: _71  and  _72
REMARK   32  A    between atoms: _74  and  _76
REMARK   33  A    between atoms: _76  and  _77
REMARK   34  A    between atoms: _76  and  _79
REMARK   35  A    between atoms: _79  and  _80
REMARK   36  A    between atoms: _85  and  _86
REMARK   37  A    between atoms: _88  and  _90
REMARK   38  A    between atoms: _90  and  _91
REMARK   39  A    between atoms: _90  and  _93
REMARK   40  A    between atoms: _93  and  _94
REMARK   41  A    between atoms: _100  and  _102
REMARK   42  A    between atoms: _102  and  _103
REMARK   43  A    between atoms: _102  and  _105
REMARK   44  A    between atoms: _105  and  _106
REMARK   45  A    between atoms: _111  and  _113
REMARK   46  A    between atoms: _113  and  _114
REMARK   47  A    between atoms: _113  and  _116
REMARK   48  A    between atoms: _119  and  _121
REMARK   49  A    between atoms: _121  and  _122
REMARK   50  A    between atoms: _124  and  _126
REMARK   51  A    between atoms: _126  and  _127
REMARK   52  A    between atoms: _130  and  _132
REMARK   53  A    between atoms: _132  and  _133
REMARK   54  A    between atoms: _132  and  _135
REMARK   55  A    between atoms: _135  and  _136
REMARK   56  A    between atoms: _136  and  _137
REMARK   57  A    between atoms: _139  and  _141
REMARK   58  A    between atoms: _141  and  _142
REMARK   59  A    between atoms: _141  and  _144
REMARK   60  A    between atoms: _144  and  _145
REMARK   61  A    between atoms: _145  and  _146
REMARK   62  A    between atoms: _149  and  _151
REMARK   63  A    between atoms: _151  and  _152
REMARK   64  A    between atoms: _151  and  _154
REMARK   65  A    between atoms: _154  and  _155
REMARK   66  A    between atoms: _160  and  _162
REMARK   67  A    between atoms: _162  and  _163
REMARK   68  A    between atoms: _162  and  _165
REMARK   69  A    between atoms: _165  and  _166
REMARK   70  A    between atoms: _169  and  _171
REMARK   71  A    between atoms: _171  and  _172
REMARK   72  A    between atoms: _171  and  _174
REMARK   73  A    between atoms: _174  and  _175
REMARK   74  A    between atoms: _181  and  _183
REMARK   75  A    between atoms: _183  and  _184
REMARK   76  A    between atoms: _183  and  _186
REMARK   77  A    between atoms: _186  and  _187
REMARK   78  A    between atoms: _192  and  _194
REMARK   79  A    between atoms: _194  and  _195
REMARK   80  A    between atoms: _194  and  _197
REMARK   81  A    between atoms: _197  and  _198
REMARK   82  A    between atoms: _203  and  _205
REMARK   83  A    between atoms: _205  and  _206
REMARK   84  A    between atoms: _205  and  _208
REMARK   85  A    between atoms: _208  and  _209
REMARK   86  A    between atoms: _211  and  _213
REMARK   87  A    between atoms: _213  and  _214
REMARK   88  A    between atoms: _213  and  _216
REMARK   89  A    between atoms: _216  and  _217
REMARK   90  A    between atoms: _217  and  _218
REMARK   91  A    between atoms: _218  and  _219
REMARK   92  A    between atoms: _228  and  _230
REMARK   93  A    between atoms: _230  and  _231
REMARK   94  A    between atoms: _230  and  _233
REMARK   95  A    between atoms: _233  and  _234
REMARK   96  A    between atoms: _237  and  _239
REMARK   97  A    between atoms: _239  and  _240
REMARK   98  A    between atoms: _239  and  _242
REMARK   99  A    between atoms: _245  and  _247
REMARK  100  A    between atoms: _247  and  _248
REMARK  101  A    between atoms: _247  and  _250
REMARK  102  A    between atoms: _253  and  _255
REMARK  103  A    between atoms: _255  and  _256
REMARK  104  A    between atoms: _258  and  _260
REMARK  105  A    between atoms: _260  and  _261
REMARK  106  A    between atoms: _260  and  _263
REMARK  107  A    between atoms: _263  and  _264
REMARK  108  A    between atoms: _268  and  ZN_679
REMARK  109  A    between atoms: _269  and  _271
REMARK  110  A    between atoms: _271  and  _272
REMARK  111  A    between atoms: _271  and  _274
REMARK  112  A    between atoms: _274  and  _275
REMARK  113  A    between atoms: _275  and  _276
REMARK  114  A    between atoms: _279  and  _281
REMARK  115  A    between atoms: _281  and  _282
REMARK  116  A    between atoms: _281  and  _284
REMARK  117  A    between atoms: _284  and  _285
REMARK  118  A    between atoms: _290  and  _291
REMARK  119  A    between atoms: _293  and  _295
REMARK  120  A    between atoms: _295  and  _296
REMARK  121  A    between atoms: _295  and  _298
REMARK  122  A    between atoms: _298  and  _299
REMARK  123  A    between atoms: _303  and  ZN_679
REMARK  124  A    between atoms: _304  and  _306
REMARK  125  A    between atoms: _306  and  _307
REMARK  126  A    between atoms: _306  and  _309
REMARK  127  A    between atoms: _309  and  _310
REMARK  128  A    between atoms: _320  and  _322
REMARK  129  A    between atoms: _322  and  _323
REMARK  130  A    between atoms: _322  and  _325
REMARK  131  A    between atoms: _325  and  _326
REMARK  132  A    between atoms: _329  and  _331
REMARK  133  A    between atoms: _331  and  _332
REMARK  134  A    between atoms: _331  and  _334
REMARK  135  A    between atoms: _334  and  _335
REMARK  136  A    between atoms: _335  and  _336
REMARK  137  A    between atoms: _336  and  _337
REMARK  138  A    between atoms: _337  and  _338
REMARK  139  A    between atoms: _342  and  _344
REMARK  140  A    between atoms: _344  and  _345
REMARK  141  A    between atoms: _344  and  _347
REMARK  142  A    between atoms: _347  and  _348
REMARK  143  A    between atoms: _348  and  _349
REMARK  144  A    between atoms: _349  and  _350
REMARK  145  A    between atoms: _350  and  ZN_679
REMARK  146  A    between atoms: _352  and  _354
REMARK  147  A    between atoms: _354  and  _355
REMARK  148  A    between atoms: _354  and  _357
REMARK  149  A    between atoms: _357  and  _358
REMARK  150  A    between atoms: _361  and  _363
REMARK  151  A    between atoms: _363  and  _364
REMARK  152  A    between atoms: _363  and  _366
REMARK  153  A    between atoms: _369  and  _371
REMARK  154  A    between atoms: _371  and  _372
REMARK  155  A    between atoms: _371  and  _374
REMARK  156  A    between atoms: _374  and  _375
REMARK  157  A    between atoms: _375  and  _376
REMARK  158  A    between atoms: _379  and  _381
REMARK  159  A    between atoms: _381  and  _382
REMARK  160  A    between atoms: _381  and  _384
REMARK  161  A    between atoms: _384  and  _385
REMARK  162  A    between atoms: _385  and  _386
REMARK  163  A    between atoms: _389  and  _391
REMARK  164  A    between atoms: _391  and  _392
REMARK  165  A    between atoms: _391  and  _394
REMARK  166  A    between atoms: _394  and  _395
REMARK  167  A    between atoms: _398  and  _400
REMARK  168  A    between atoms: _400  and  _401
REMARK  169  A    between atoms: _400  and  _403
REMARK  170  A    between atoms: _403  and  _404
REMARK  171  A    between atoms: _409  and  _411
REMARK  172  A    between atoms: _411  and  _412
REMARK  173  A    between atoms: _411  and  _414
REMARK  174  A    between atoms: _414  and  _415
REMARK  175  A    between atoms: _417  and  _419
REMARK  176  A    between atoms: _419  and  _420
REMARK  177  A    between atoms: _419  and  _422
REMARK  178  A    between atoms: _422  and  _423
REMARK  179  A    between atoms: _423  and  _424
REMARK  180  A    between atoms: _426  and  _428
REMARK  181  A    between atoms: _428  and  _429
REMARK  182  A    between atoms: _432  and  _434
REMARK  183  A    between atoms: _434  and  _435
REMARK  184  A    between atoms: _434  and  _437
REMARK  185  A    between atoms: _437  and  _438
REMARK  186  A    between atoms: _443  and  _445
REMARK  187  A    between atoms: _445  and  _446
REMARK  188  A    between atoms: _445  and  _448
REMARK  189  A    between atoms: _448  and  _449
REMARK  190  A    between atoms: _455  and  _457
REMARK  191  A    between atoms: _457  and  _458
REMARK  192  A    between atoms: _457  and  _460
REMARK  193  A    between atoms: _460  and  _461
REMARK  194  A    between atoms: _466  and  _467
REMARK  195  A    between atoms: _469  and  _471
REMARK  196  A    between atoms: _471  and  _472
REMARK  197  A    between atoms: _471  and  _474
REMARK  198  A    between atoms: _474  and  _475
REMARK  199  A    between atoms: _478  and  _480
REMARK  200  A    between atoms: _480  and  _481
REMARK  201  A    between atoms: _480  and  _483
REMARK  202  A    between atoms: _483  and  _484
REMARK  203  A    between atoms: _487  and  _489
REMARK  204  A    between atoms: _489  and  _490
REMARK  205  A    between atoms: _489  and  _492
REMARK  206  A    between atoms: _492  and  _493
REMARK  207  A    between atoms: _496  and  _498
REMARK  208  A    between atoms: _498  and  _499
REMARK  209  A    between atoms: _498  and  _501
REMARK  210  A    between atoms: _501  and  _502
REMARK  211  A    between atoms: _507  and  _508
REMARK  212  A    between atoms: _510  and  _512
REMARK  213  A    between atoms: _512  and  _513
REMARK  214  A    between atoms: _512  and  _515
REMARK  215  A    between atoms: _515  and  _516
REMARK  216  A    between atoms: _519  and  _521
REMARK  217  A    between atoms: _521  and  _522
REMARK  218  A    between atoms: _521  and  _524
REMARK  219  A    between atoms: _524  and  _525
REMARK  220  A    between atoms: _525  and  _526
REMARK  221  A    between atoms: _526  and  _527
REMARK  222  A    between atoms: _536  and  _538
REMARK  223  A    between atoms: _538  and  _539
REMARK  224  A    between atoms: _538  and  _541
REMARK  225  A    between atoms: _541  and  _542
REMARK  226  A    between atoms: _548  and  _549
REMARK  227  A    between atoms: _554  and  _556
REMARK  228  A    between atoms: _556  and  _557
REMARK  229  A    between atoms: _556  and  _559
REMARK  230  A    between atoms: _559  and  _560
REMARK  231  A    between atoms: _560  and  _561
REMARK  232  A    between atoms: _563  and  _565
REMARK  233  A    between atoms: _565  and  _566
REMARK  234  A    between atoms: _565  and  _568
REMARK  235  A    between atoms: _571  and  _573
REMARK  236  A    between atoms: _573  and  _574
REMARK  237  A    between atoms: _577  and  _579
REMARK  238  A    between atoms: _579  and  _580
REMARK  239  A    between atoms: _579  and  _582
REMARK  240  A    between atoms: _582  and  _583
REMARK  241  A    between atoms: _586  and  _588
REMARK  242  A    between atoms: _588  and  _589
REMARK  243  A    between atoms: _588  and  _591
REMARK  244  A    between atoms: _591  and  _592
REMARK  245  A    between atoms: _592  and  _593
REMARK  246  A    between atoms: _598  and  _600
REMARK  247  A    between atoms: _600  and  _601
REMARK  248  A    between atoms: _600  and  _603
REMARK  249  A    between atoms: _603  and  _604
REMARK  250  A    between atoms: _607  and  _609
REMARK  251  A    between atoms: _609  and  _610
REMARK  252  A    between atoms: _609  and  _612
REMARK  253  A    between atoms: _614  and  _616
REMARK  254  A    between atoms: _616  and  _617
REMARK  255  A    between atoms: _616  and  _619
REMARK  256  A    between atoms: _619  and  _620
REMARK  257  A    between atoms: _620  and  _621
REMARK  258  A    between atoms: _624  and  _626
REMARK  259  A    between atoms: _626  and  _627
REMARK  260  A    between atoms: _626  and  _629
REMARK  261  A    between atoms: _629  and  _630
REMARK  262  A    between atoms: _630  and  _631
REMARK  263  A    between atoms: _631  and  _632
REMARK  264  A    between atoms: _632  and  _633
REMARK  265  A    between atoms: _637  and  _639
REMARK  266  A    between atoms: _639  and  _640
REMARK  267  A    between atoms: _639  and  _642
REMARK  268  A    between atoms: _642  and  _643
REMARK  269  A    between atoms: _648  and  _650
REMARK  270  A    between atoms: _650  and  _651
REMARK  271  A    between atoms: _650  and  _653
REMARK  272  A    between atoms: _653  and  _654
REMARK  273  A    between atoms: _659  and  _660
REMARK  274  A    between atoms: _662  and  _664
REMARK  275  A    between atoms: _664  and  _665
REMARK  276  A    between atoms: _664  and  _667
REMARK  277  A    between atoms: _667  and  _668
REMARK  278  A    between atoms: _668  and  _669
REMARK  279  A    between atoms: _669  and  _670
REMARK                            x       y       z     vdW  Elec       q    Type
REMARK                         _______ _______ _______ _____ _____    ______ ____
ROOT
ATOM      1  NE  ARG A   1       7.448  -1.429  24.637  0.00  0.00    -0.265 N 
ATOM      2  HE  ARG A   1       7.704  -0.630  25.252  0.00  0.00    +0.259 HD
ATOM      3  CZ  ARG A   1       8.022  -1.492  23.437  0.00  0.00    +0.342 C 
ATOM      4  NH2 ARG A   1       8.879  -0.555  23.058  0.00  0.00    -0.292 N 
ATOM      5 HH21 ARG A   1       9.105   0.233  23.698  0.00  0.00    +0.255 HD
ATOM      6 HH22 ARG A   1       9.325  -0.607  22.120  0.00  0.00    +0.255 HD
ATOM      7  NH1 ARG A   1       7.732  -2.486  22.602  0.00  0.00    -0.292 N 
ATOM      8 HH11 ARG A   1       7.053  -3.221  22.885  0.00  0.00    +0.255 HD
ATOM      9 HH12 ARG A   1       8.185  -2.528  21.667  0.00  0.00    +0.255 HD
ENDROOT
BRANCH   1  10
ATOM     10  CD  ARG A   1       6.485  -2.399  25.154  0.00  0.00    +0.174 C 
BRANCH  10  11
ATOM     11  CG  ARG A   1       6.988  -3.099  26.402  0.00  0.00    +0.045 C 
BRANCH  11  12
ATOM     12  CB  ARG A   1       8.182  -4.023  26.092  0.00  0.00    +0.029 C 
BRANCH  12  13
ATOM     13  CA  ARG A   1       8.452  -5.054  27.205  0.00  0.00    +0.133 C 
BRANCH  13  14
ATOM     14  N   ARG A   1       8.896  -4.409  28.448  0.00  0.00    -0.239 NA
ATOM     15  H   ARG A   1       9.143  -3.399  28.430  0.00  0.00    +0.142 HD
ENDBRANCH  13  14
BRANCH  13  16
ATOM     16  C   ARG A   1       9.477  -6.086  26.724  0.00  0.00    +0.224 C 
ATOM     17  O   ARG A   1       9.087  -7.173  26.292  0.00  0.00    -0.287 OA
ENDBRANCH  13  16
ENDBRANCH  12  13
ENDBRANCH  11  12
ENDBRANCH  10  11
ENDBRANCH   1  10
TORSDOF 6
REMARK  Name = ../refined-set-2016/3t8v/3t8v_pocket.pdb
REMARK  279 active torsions:
REMARK  status: ('A' for Active; 'I' for Inactive)
REMARK    1  A    between atoms: _1  and  _3
REMARK    2  A    between atoms: _3  and  _4
REMARK    3  A    between atoms: _7  and  _9
REMARK    4  A    between atoms: _9  and  _10
REMARK    5  A    between atoms: _9  and  _12
REMARK    6  A    between atoms: _12  and  _13
REMARK    7  A    between atoms: _16  and  _18
REMARK    8  A    between atoms: _18  and  _19
REMARK    9  A    between atoms: _18  and  _21
REMARK   10  A    between atoms: _21  and  _22
REMARK   11  A    between atoms: _25  and  _27
REMARK   12  A    between atoms: _27  and  _28
REMARK   13  A    between atoms: _27  and  _30
REMARK   14  A    between atoms: _30  and  _31
REMARK   15  A    between atoms: _31  and  _32
REMARK   16  A    between atoms: _37  and  _39
REMARK   17  A    between atoms: _39  and  _40
REMARK   18  A    between atoms: _39  and  _42
REMARK   19  A    between atoms: _44  and  _46
REMARK   20  A    between atoms: _46  and  _47
REMARK   21  A    between atoms: _46  and  _49
REMARK   22  A    between atoms: _49  and  _50
REMARK   23  A    between atoms: _50  and  _51
REMARK   24  A    between atoms: _54  and  _56
REMARK   25  A    between atoms: _56  and  _57
REMARK   26  A    between atoms: _60  and  _62
REMARK   27  A    between atoms: _62  and  _63
REMARK   28  A    between atoms: _62  and  _65
REMARK   29  A    between atoms: _65  and  _66
REMARK   30  A    between atoms: _69  and  _71
REMARK   31  A    between atoms: _71  and  _72
REMARK   32  A    between atoms: _74  and  _76
REMARK   33  A    between atoms: _76  and  _77
REMARK   34  A    between atoms: _76  and  _79
REMARK   35  A    between atoms: _79  and  _80
REMARK   36  A    between atoms: _85  and  _86
REMARK   37  A    between atoms: _88  and  _90
REMARK   38  A    between atoms: _90  and  _91
REMARK   39  A    between atoms: _90  and  _93
REMARK   40  A    between atoms: _93  and  _94
REMARK   41  A    between atoms: _100  and  _102
REMARK   42  A    between atoms: _102  and  _103
REMARK   43  A    between atoms: _102  and  _105
REMARK   44  A    between atoms: _105  and  _106
REMARK   45  A    between atoms: _111  and  _113
REMARK   46  A    between atoms: _113  and  _114
REMARK   47  A    between atoms: _113  and  _116
REMARK   48  A    between atoms: _119  and  _121
REMARK   49  A    between atoms: _121  and  _122
REMARK   50  A    between atoms: _124  and  _126
REMARK   51  A    between atoms: _126  and  _127
REMARK   52  A    between atoms: _130  and  _132
REMARK   53  A    between atoms: _132  and  _133
REMARK   54  A    between atoms: _132  and  _135
REMARK   55  A    between atoms: _135  and  _136
REMARK   56  A    between atoms: _136  and  _137
REMARK   57  A    between atoms: _139  and  _141
REMARK   58  A    between atoms: _141  and  _142
REMARK   59  A    between atoms: _141  and  _144
REMARK   60  A    between atoms: _144  and  _145
REMARK   61  A    between atoms: _145  and  _146
REMARK   62  A    between atoms: _149  and  _151
REMARK   63  A    between atoms: _151  and  _152
REMARK   64  A    between atoms: _151  and  _154
REMARK   65  A    between atoms: _154  and  _155
REMARK   66  A    between atoms: _160  and  _162
REMARK   67  A    between atoms: _162  and  _163
REMARK   68  A    between atoms: _162  and  _165
REMARK   69  A    between atoms: _165  and  _166
REMARK   70  A    between atoms: _169  and  _171
REMARK   71  A    between atoms: _171  and  _172
REMARK   72  A    between atoms: _171  and  _174
REMARK   73  A    between atoms: _174  and  _175
REMARK   74  A    between atoms: _181  and  _183
REMARK   75  A    between atoms: _183  and  _184
REMARK   76  A    between atoms: _183  and  _186
REMARK   77  A    between atoms: _186  and  _187
REMARK   78  A    between atoms: _192  and  _194
REMARK   79  A    between atoms: _194  and  _195
REMARK   80  A    between atoms: _194  and  _197
REMARK   81  A    between atoms: _197  and  _198
REMARK   82  A    between atoms: _203  and  _205
REMARK   83  A    between atoms: _205  and  _206
REMARK   84  A    between atoms: _205  and  _208
REMARK   85  A    between atoms: _208  and  _209
REMARK   86  A    between atoms: _211  and  _213
REMARK   87  A    between atoms: _213  and  _214
REMARK   88  A    between atoms: _213  and  _216
REMARK   89  A    between atoms: _216  and  _217
REMARK   90  A    between atoms: _217  and  _218
REMARK   91  A    between atoms: _218  and  _219
REMARK   92  A    between atoms: _228  and  _230
REMARK   93  A    between atoms: _230  and  _231
REMARK   94  A    between atoms: _230  and  _233
REMARK   95  A    between atoms: _233  and  _234
REMARK   96  A    between atoms: _237  and  _239
REMARK   97  A    between atoms: _239  and  _240
REMARK   98  A    between atoms: _239  and  _242
REMARK   99  A    between atoms: _245  and  _247
REMARK  100  A    between atoms: _247  and  _248
REMARK  101  A    between atoms: _247  and  _250
REMARK  102  A    between atoms: _253  and  _255
REMARK  103  A    between atoms: _255  and  _256
REMARK  104  A    between atoms: _258  and  _260
REMARK  105  A    between atoms: _260  and  _261
REMARK  106  A    between atoms: _260  and  _263
REMARK  107  A    between atoms: _263  and  _264
REMARK  108  A    between atoms: _268  and  ZN_679
REMARK  109  A    between atoms: _269  and  _271
REMARK  110  A    between atoms: _271  and  _272
REMARK  111  A    between atoms: _271  and  _274
REMARK  112  A    between atoms: _274  and  _275
REMARK  113  A    between atoms: _275  and  _276
REMARK  114  A    between atoms: _279  and  _281
REMARK  115  A    between atoms: _281  and  _282
REMARK  116  A    between atoms: _281  and  _284
REMARK  117  A    between atoms: _284  and  _285
REMARK  118  A    between atoms: _290  and  _291
REMARK  119  A    between atoms: _293  and  _295
REMARK  120  A    between atoms: _295  and  _296
REMARK  121  A    between atoms: _295  and  _298
REMARK  122  A    between atoms: _298  and  _299
REMARK  123  A    between atoms: _303  and  ZN_679
REMARK  124  A    between atoms: _304  and  _306
REMARK  125  A    between atoms: _306  and  _307
REMARK  126  A    between atoms: _306  and  _309
REMARK  127  A    between atoms: _309  and  _310
REMARK  128  A    between atoms: _320  and  _322
REMARK  129  A    between atoms: _322  and  _323
REMARK  130  A    between atoms: _322  and  _325
REMARK  131  A    between atoms: _325  and  _326
REMARK  132  A    between atoms: _329  and  _331
REMARK  133  A    between atoms: _331  and  _332
REMARK  134  A    between atoms: _331  and  _334
REMARK  135  A    between atoms: _334  and  _335
REMARK  136  A    between atoms: _335  and  _336
REMARK  137  A    between atoms: _336  and  _337
REMARK  138  A    between atoms: _337  and  _338
REMARK  139  A    between atoms: _342  and  _344
REMARK  140  A    between atoms: _344  and  _345
REMARK  141  A    between atoms: _344  and  _347
REMARK  142  A    between atoms: _347  and  _348
REMARK  143  A    between atoms: _348  and  _349
REMARK  144  A    between atoms: _349  and  _350
REMARK  145  A    between atoms: _350  and  ZN_679
REMARK  146  A    between atoms: _352  and  _354
REMARK  147  A    between atoms: _354  and  _355
REMARK  148  A    between atoms: _354  and  _357
REMARK  149  A    between atoms: _357  and  _358
REMARK  150  A    between atoms: _361  and  _363
REMARK  151  A    between atoms: _363  and  _364
REMARK  152  A    between atoms: _363  and  _366
REMARK  153  A    between atoms: _369  and  _371
REMARK  154  A    between atoms: _371  and  _372
REMARK  155  A    between atoms: _371  and  _374
REMARK  156  A    between atoms: _374  and  _375
REMARK  157  A    between atoms: _375  and  _376
REMARK  158  A    between atoms: _379  and  _381
REMARK  159  A    between atoms: _381  and  _382
REMARK  160  A    between atoms: _381  and  _384
REMARK  161  A    between atoms: _384  and  _385
REMARK  162  A    between atoms: _385  and  _386
REMARK  163  A    between atoms: _389  and  _391
REMARK  164  A    between atoms: _391  and  _392
REMARK  165  A    between atoms: _391  and  _394
REMARK  166  A    between atoms: _394  and  _395
REMARK  167  A    between atoms: _398  and  _400
REMARK  168  A    between atoms: _400  and  _401
REMARK  169  A    between atoms: _400  and  _403
REMARK  170  A    between atoms: _403  and  _404
REMARK  171  A    between atoms: _409  and  _411
REMARK  172  A    between atoms: _411  and  _412
REMARK  173  A    between atoms: _411  and  _414
REMARK  174  A    between atoms: _414  and  _415
REMARK  175  A    between atoms: _417  and  _419
REMARK  176  A    between atoms: _419  and  _420
REMARK  177  A    between atoms: _419  and  _422
REMARK  178  A    between atoms: _422  and  _423
REMARK  179  A    between atoms: _423  and  _424
REMARK  180  A    between atoms: _426  and  _428
REMARK  181  A    between atoms: _428  and  _429
REMARK  182  A    between atoms: _432  and  _434
REMARK  183  A    between atoms: _434  and  _435
REMARK  184  A    between atoms: _434  and  _437
REMARK  185  A    between atoms: _437  and  _438
REMARK  186  A    between atoms: _443  and  _445
REMARK  187  A    between atoms: _445  and  _446
REMARK  188  A    between atoms: _445  and  _448
REMARK  189  A    between atoms: _448  and  _449
REMARK  190  A    between atoms: _455  and  _457
REMARK  191  A    between atoms: _457  and  _458
REMARK  192  A    between atoms: _457  and  _460
REMARK  193  A    between atoms: _460  and  _461
REMARK  194  A    between atoms: _466  and  _467
REMARK  195  A    between atoms: _469  and  _471
REMARK  196  A    between atoms: _471  and  _472
REMARK  197  A    between atoms: _471  and  _474
REMARK  198  A    between atoms: _474  and  _475
REMARK  199  A    between atoms: _478  and  _480
REMARK  200  A    between atoms: _480  and  _481
REMARK  201  A    between atoms: _480  and  _483
REMARK  202  A    between atoms: _483  and  _484
REMARK  203  A    between atoms: _487  and  _489
REMARK  204  A    between atoms: _489  and  _490
REMARK  205  A    between atoms: _489  and  _492
REMARK  206  A    between atoms: _492  and  _493
REMARK  207  A    between atoms: _496  and  _498
REMARK  208  A    between atoms: _498  and  _499
REMARK  209  A    between atoms: _498  and  _501
REMARK  210  A    between atoms: _501  and  _502
REMARK  211  A    between atoms: _507  and  _508
REMARK  212  A    between atoms: _510  and  _512
REMARK  213  A    between atoms: _512  and  _513
REMARK  214  A    between atoms: _512  and  _515
REMARK  215  A    between atoms: _515  and  _516
REMARK  216  A    between atoms: _519  and  _521
REMARK  217  A    between atoms: _521  and  _522
REMARK  218  A    between atoms: _521  and  _524
REMARK  219  A    between atoms: _524  and  _525
REMARK  220  A    between atoms: _525  and  _526
REMARK  221  A    between atoms: _526  and  _527
REMARK  222  A    between atoms: _536  and  _538
REMARK  223  A    between atoms: _538  and  _539
REMARK  224  A    between atoms: _538  and  _541
REMARK  225  A    between atoms: _541  and  _542
REMARK  226  A    between atoms: _548  and  _549
REMARK  227  A    between atoms: _554  and  _556
REMARK  228  A    between atoms: _556  and  _557
REMARK  229  A    between atoms: _556  and  _559
REMARK  230  A    between atoms: _559  and  _560
REMARK  231  A    between atoms: _560  and  _561
REMARK  232  A    between atoms: _563  and  _565
REMARK  233  A    between atoms: _565  and  _566
REMARK  234  A    between atoms: _565  and  _568
REMARK  235  A    between atoms: _571  and  _573
REMARK  236  A    between atoms: _573  and  _574
REMARK  237  A    between atoms: _577  and  _579
REMARK  238  A    between atoms: _579  and  _580
REMARK  239  A    between atoms: _579  and  _582
REMARK  240  A    between atoms: _582  and  _583
REMARK  241  A    between atoms: _586  and  _588
REMARK  242  A    between atoms: _588  and  _589
REMARK  243  A    between atoms: _588  and  _591
REMARK  244  A    between atoms: _591  and  _592
REMARK  245  A    between atoms: _592  and  _593
REMARK  246  A    between atoms: _598  and  _600
REMARK  247  A    between atoms: _600  and  _601
REMARK  248  A    between atoms: _600  and  _603
REMARK  249  A    between atoms: _603  and  _604
REMARK  250  A    between atoms: _607  and  _609
REMARK  251  A    between atoms: _609  and  _610
REMARK  252  A    between atoms: _609  and  _612
REMARK  253  A    between atoms: _614  and  _616
REMARK  254  A    between atoms: _616  and  _617
REMARK  255  A    between atoms: _616  and  _619
REMARK  256  A    between atoms: _619  and  _620
REMARK  257  A    between atoms: _620  and  _621
REMARK  258  A    between atoms: _624  and  _626
REMARK  259  A    between atoms: _626  and  _627
REMARK  260  A    between atoms: _626  and  _629
REMARK  261  A    between atoms: _629  and  _630
REMARK  262  A    between atoms: _630  and  _631
REMARK  263  A    between atoms: _631  and  _632
REMARK  264  A    between atoms: _632  and  _633
REMARK  265  A    between atoms: _637  and  _639
REMARK  266  A    between atoms: _639  and  _640
REMARK  267  A    between atoms: _639  and  _642
REMARK  268  A    between atoms: _642  and  _643
REMARK  269  A    between atoms: _648  and  _650
REMARK  270  A    between atoms: _650  and  _651
REMARK  271  A    between atoms: _650  and  _653
REMARK  272  A    between atoms: _653  and  _654
REMARK  273  A    between atoms: _659  and  _660
REMARK  274  A    between atoms: _662  and  _664
REMARK  275  A    between atoms: _664  and  _665
REMARK  276  A    between atoms: _664  and  _667
REMARK  277  A    between atoms: _667  and  _668
REMARK  278  A    between atoms: _668  and  _669
REMARK  279  A    between atoms: _669  and  _670
REMARK                            x       y       z     vdW  Elec       q    Type
REMARK                         _______ _______ _______ _____ _____    ______ ____
ROOT
ATOM      1  O   HOH     1      18.332  16.070  20.145  0.00  0.00    +0.000 OA
ENDROOT
TORSDOF 0
REMARK  Name = ../refined-set-2016/3t8v/3t8v_pocket.pdb
REMARK  279 active torsions:
REMARK  status: ('A' for Active; 'I' for Inactive)
REMARK    1  A    between atoms: _1  and  _3
REMARK    2  A    between atoms: _3  and  _4
REMARK    3  A    between atoms: _7  and  _9
REMARK    4  A    between atoms: _9  and  _10
REMARK    5  A    between atoms: _9  and  _12
REMARK    6  A    between atoms: _12  and  _13
REMARK    7  A    between atoms: _16  and  _18
REMARK    8  A    between atoms: _18  and  _19
REMARK    9  A    between atoms: _18  and  _21
REMARK   10  A    between atoms: _21  and  _22
REMARK   11  A    between atoms: _25  and  _27
REMARK   12  A    between atoms: _27  and  _28
REMARK   13  A    between atoms: _27  and  _30
REMARK   14  A    between atoms: _30  and  _31
REMARK   15  A    between atoms: _31  and  _32
REMARK   16  A    between atoms: _37  and  _39
REMARK   17  A    between atoms: _39  and  _40
REMARK   18  A    between atoms: _39  and  _42
REMARK   19  A    between atoms: _44  and  _46
REMARK   20  A    between atoms: _46  and  _47
REMARK   21  A    between atoms: _46  and  _49
REMARK   22  A    between atoms: _49  and  _50
REMARK   23  A    between atoms: _50  and  _51
REMARK   24  A    between atoms: _54  and  _56
REMARK   25  A    between atoms: _56  and  _57
REMARK   26  A    between atoms: _60  and  _62
REMARK   27  A    between atoms: _62  and  _63
REMARK   28  A    between atoms: _62  and  _65
REMARK   29  A    between atoms: _65  and  _66
REMARK   30  A    between atoms: _69  and  _71
REMARK   31  A    between atoms: _71  and  _72
REMARK   32  A    between atoms: _74  and  _76
REMARK   33  A    between atoms: _76  and  _77
REMARK   34  A    between atoms: _76  and  _79
REMARK   35  A    between atoms: _79  and  _80
REMARK   36  A    between atoms: _85  and  _86
REMARK   37  A    between atoms: _88  and  _90
REMARK   38  A    between atoms: _90  and  _91
REMARK   39  A    between atoms: _90  and  _93
REMARK   40  A    between atoms: _93  and  _94
REMARK   41  A    between atoms: _100  and  _102
REMARK   42  A    between atoms: _102  and  _103
REMARK   43  A    between atoms: _102  and  _105
REMARK   44  A    between atoms: _105  and  _106
REMARK   45  A    between atoms: _111  and  _113
REMARK   46  A    between atoms: _113  and  _114
REMARK   47  A    between atoms: _113  and  _116
REMARK   48  A    between atoms: _119  and  _121
REMARK   49  A    between atoms: _121  and  _122
REMARK   50  A    between atoms: _124  and  _126
REMARK   51  A    between atoms: _126  and  _127
REMARK   52  A    between atoms: _130  and  _132
REMARK   53  A    between atoms: _132  and  _133
REMARK   54  A    between atoms: _132  and  _135
REMARK   55  A    between atoms: _135  and  _136
REMARK   56  A    between atoms: _136  and  _137
REMARK   57  A    between atoms: _139  and  _141
REMARK   58  A    between atoms: _141  and  _142
REMARK   59  A    between atoms: _141  and  _144
REMARK   60  A    between atoms: _144  and  _145
REMARK   61  A    between atoms: _145  and  _146
REMARK   62  A    between atoms: _149  and  _151
REMARK   63  A    between atoms: _151  and  _152
REMARK   64  A    between atoms: _151  and  _154
REMARK   65  A    between atoms: _154  and  _155
REMARK   66  A    between atoms: _160  and  _162
REMARK   67  A    between atoms: _162  and  _163
REMARK   68  A    between atoms: _162  and  _165
REMARK   69  A    between atoms: _165  and  _166
REMARK   70  A    between atoms: _169  and  _171
REMARK   71  A    between atoms: _171  and  _172
REMARK   72  A    between atoms: _171  and  _174
REMARK   73  A    between atoms: _174  and  _175
REMARK   74  A    between atoms: _181  and  _183
REMARK   75  A    between atoms: _183  and  _184
REMARK   76  A    between atoms: _183  and  _186
REMARK   77  A    between atoms: _186  and  _187
REMARK   78  A    between atoms: _192  and  _194
REMARK   79  A    between atoms: _194  and  _195
REMARK   80  A    between atoms: _194  and  _197
REMARK   81  A    between atoms: _197  and  _198
REMARK   82  A    between atoms: _203  and  _205
REMARK   83  A    between atoms: _205  and  _206
REMARK   84  A    between atoms: _205  and  _208
REMARK   85  A    between atoms: _208  and  _209
REMARK   86  A    between atoms: _211  and  _213
REMARK   87  A    between atoms: _213  and  _214
REMARK   88  A    between atoms: _213  and  _216
REMARK   89  A    between atoms: _216  and  _217
REMARK   90  A    between atoms: _217  and  _218
REMARK   91  A    between atoms: _218  and  _219
REMARK   92  A    between atoms: _228  and  _230
REMARK   93  A    between atoms: _230  and  _231
REMARK   94  A    between atoms: _230  and  _233
REMARK   95  A    between atoms: _233  and  _234
REMARK   96  A    between atoms: _237  and  _239
REMARK   97  A    between atoms: _239  and  _240
REMARK   98  A    between atoms: _239  and  _242
REMARK   99  A    between atoms: _245  and  _247
REMARK  100  A    between atoms: _247  and  _248
REMARK  101  A    between atoms: _247  and  _250
REMARK  102  A    between atoms: _253  and  _255
REMARK  103  A    between atoms: _255  and  _256
REMARK  104  A    between atoms: _258  and  _260
REMARK  105  A    between atoms: _260  and  _261
REMARK  106  A    between atoms: _260  and  _263
REMARK  107  A    between atoms: _263  and  _264
REMARK  108  A    between atoms: _268  and  ZN_679
REMARK  109  A    between atoms: _269  and  _271
REMARK  110  A    between atoms: _271  and  _272
REMARK  111  A    between atoms: _271  and  _274
REMARK  112  A    between atoms: _274  and  _275
REMARK  113  A    between atoms: _275  and  _276
REMARK  114  A    between atoms: _279  and  _281
REMARK  115  A    between atoms: _281  and  _282
REMARK  116  A    between atoms: _281  and  _284
REMARK  117  A    between atoms: _284  and  _285
REMARK  118  A    between atoms: _290  and  _291
REMARK  119  A    between atoms: _293  and  _295
REMARK  120  A    between atoms: _295  and  _296
REMARK  121  A    between atoms: _295  and  _298
REMARK  122  A    between atoms: _298  and  _299
REMARK  123  A    between atoms: _303  and  ZN_679
REMARK  124  A    between atoms: _304  and  _306
REMARK  125  A    between atoms: _306  and  _307
REMARK  126  A    between atoms: _306  and  _309
REMARK  127  A    between atoms: _309  and  _310
REMARK  128  A    between atoms: _320  and  _322
REMARK  129  A    between atoms: _322  and  _323
REMARK  130  A    between atoms: _322  and  _325
REMARK  131  A    between atoms: _325  and  _326
REMARK  132  A    between atoms: _329  and  _331
REMARK  133  A    between atoms: _331  and  _332
REMARK  134  A    between atoms: _331  and  _334
REMARK  135  A    between atoms: _334  and  _335
REMARK  136  A    between atoms: _335  and  _336
REMARK  137  A    between atoms: _336  and  _337
REMARK  138  A    between atoms: _337  and  _338
REMARK  139  A    between atoms: _342  and  _344
REMARK  140  A    between atoms: _344  and  _345
REMARK  141  A    between atoms: _344  and  _347
REMARK  142  A    between atoms: _347  and  _348
REMARK  143  A    between atoms: _348  and  _349
REMARK  144  A    between atoms: _349  and  _350
REMARK  145  A    between atoms: _350  and  ZN_679
REMARK  146  A    between atoms: _352  and  _354
REMARK  147  A    between atoms: _354  and  _355
REMARK  148  A    between atoms: _354  and  _357
REMARK  149  A    between atoms: _357  and  _358
REMARK  150  A    between atoms: _361  and  _363
REMARK  151  A    between atoms: _363  and  _364
REMARK  152  A    between atoms: _363  and  _366
REMARK  153  A    between atoms: _369  and  _371
REMARK  154  A    between atoms: _371  and  _372
REMARK  155  A    between atoms: _371  and  _374
REMARK  156  A    between atoms: _374  and  _375
REMARK  157  A    between atoms: _375  and  _376
REMARK  158  A    between atoms: _379  and  _381
REMARK  159  A    between atoms: _381  and  _382
REMARK  160  A    between atoms: _381  and  _384
REMARK  161  A    between atoms: _384  and  _385
REMARK  162  A    between atoms: _385  and  _386
REMARK  163  A    between atoms: _389  and  _391
REMARK  164  A    between atoms: _391  and  _392
REMARK  165  A    between atoms: _391  and  _394
REMARK  166  A    between atoms: _394  and  _395
REMARK  167  A    between atoms: _398  and  _400
REMARK  168  A    between atoms: _400  and  _401
REMARK  169  A    between atoms: _400  and  _403
REMARK  170  A    between atoms: _403  and  _404
REMARK  171  A    between atoms: _409  and  _411
REMARK  172  A    between atoms: _411  and  _412
REMARK  173  A    between atoms: _411  and  _414
REMARK  174  A    between atoms: _414  and  _415
REMARK  175  A    between atoms: _417  and  _419
REMARK  176  A    between atoms: _419  and  _420
REMARK  177  A    between atoms: _419  and  _422
REMARK  178  A    between atoms: _422  and  _423
REMARK  179  A    between atoms: _423  and  _424
REMARK  180  A    between atoms: _426  and  _428
REMARK  181  A    between atoms: _428  and  _429
REMARK  182  A    between atoms: _432  and  _434
REMARK  183  A    between atoms: _434  and  _435
REMARK  184  A    between atoms: _434  and  _437
REMARK  185  A    between atoms: _437  and  _438
REMARK  186  A    between atoms: _443  and  _445
REMARK  187  A    between atoms: _445  and  _446
REMARK  188  A    between atoms: _445  and  _448
REMARK  189  A    between atoms: _448  and  _449
REMARK  190  A    between atoms: _455  and  _457
REMARK  191  A    between atoms: _457  and  _458
REMARK  192  A    between atoms: _457  and  _460
REMARK  193  A    between atoms: _460  and  _461
REMARK  194  A    between atoms: _466  and  _467
REMARK  195  A    between atoms: _469  and  _471
REMARK  196  A    between atoms: _471  and  _472
REMARK  197  A    between atoms: _471  and  _474
REMARK  198  A    between atoms: _474  and  _475
REMARK  199  A    between atoms: _478  and  _480
REMARK  200  A    between atoms: _480  and  _481
REMARK  201  A    between atoms: _480  and  _483
REMARK  202  A    between atoms: _483  and  _484
REMARK  203  A    between atoms: _487  and  _489
REMARK  204  A    between atoms: _489  and  _490
REMARK  205  A    between atoms: _489  and  _492
REMARK  206  A    between atoms: _492  and  _493
REMARK  207  A    between atoms: _496  and  _498
REMARK  208  A    between atoms: _498  and  _499
REMARK  209  A    between atoms: _498  and  _501
REMARK  210  A    between atoms: _501  and  _502
REMARK  211  A    between atoms: _507  and  _508
REMARK  212  A    between atoms: _510  and  _512
REMARK  213  A    between atoms: _512  and  _513
REMARK  214  A    between atoms: _512  and  _515
REMARK  215  A    between atoms: _515  and  _516
REMARK  216  A    between atoms: _519  and  _521
REMARK  217  A    between atoms: _521  and  _522
REMARK  218  A    between atoms: _521  and  _524
REMARK  219  A    between atoms: _524  and  _525
REMARK  220  A    between atoms: _525  and  _526
REMARK  221  A    between atoms: _526  and  _527
REMARK  222  A    between atoms: _536  and  _538
REMARK  223  A    between atoms: _538  and  _539
REMARK  224  A    between atoms: _538  and  _541
REMARK  225  A    between atoms: _541  and  _542
REMARK  226  A    between atoms: _548  and  _549
REMARK  227  A    between atoms: _554  and  _556
REMARK  228  A    between atoms: _556  and  _557
REMARK  229  A    between atoms: _556  and  _559
REMARK  230  A    between atoms: _559  and  _560
REMARK  231  A    between atoms: _560  and  _561
REMARK  232  A    between atoms: _563  and  _565
REMARK  233  A    between atoms: _565  and  _566
REMARK  234  A    between atoms: _565  and  _568
REMARK  235  A    between atoms: _571  and  _573
REMARK  236  A    between atoms: _573  and  _574
REMARK  237  A    between atoms: _577  and  _579
REMARK  238  A    between atoms: _579  and  _580
REMARK  239  A    between atoms: _579  and  _582
REMARK  240  A    between atoms: _582  and  _583
REMARK  241  A    between atoms: _586  and  _588
REMARK  242  A    between atoms: _588  and  _589
REMARK  243  A    between atoms: _588  and  _591
REMARK  244  A    between atoms: _591  and  _592
REMARK  245  A    between atoms: _592  and  _593
REMARK  246  A    between atoms: _598  and  _600
REMARK  247  A    between atoms: _600  and  _601
REMARK  248  A    between atoms: _600  and  _603
REMARK  249  A    between atoms: _603  and  _604
REMARK  250  A    between atoms: _607  and  _609
REMARK  251  A    between atoms: _609  and  _610
REMARK  252  A    between atoms: _609  and  _612
REMARK  253  A    between atoms: _614  and  _616
REMARK  254  A    between atoms: _616  and  _617
REMARK  255  A    between atoms: _616  and  _619
REMARK  256  A    between atoms: _619  and  _620
REMARK  257  A    between atoms: _620  and  _621
REMARK  258  A    between atoms: _624  and  _626
REMARK  259  A    between atoms: _626  and  _627
REMARK  260  A    between atoms: _626  and  _629
REMARK  261  A    between atoms: _629  and  _630
REMARK  262  A    between atoms: _630  and  _631
REMARK  263  A    between atoms: _631  and  _632
REMARK  264  A    between atoms: _632  and  _633
REMARK  265  A    between atoms: _637  and  _639
REMARK  266  A    between atoms: _639  and  _640
REMARK  267  A    between atoms: _639  and  _642
REMARK  268  A    between atoms: _642  and  _643
REMARK  269  A    between atoms: _648  and  _650
REMARK  270  A    between atoms: _650  and  _651
REMARK  271  A    between atoms: _650  and  _653
REMARK  272  A    between atoms: _653  and  _654
REMARK  273  A    between atoms: _659  and  _660
REMARK  274  A    between atoms: _662  and  _664
REMARK  275  A    between atoms: _664  and  _665
REMARK  276  A    between atoms: _664  and  _667
REMARK  277  A    between atoms: _667  and  _668
REMARK  278  A    between atoms: _668  and  _669
REMARK  279  A    between atoms: _669  and  _670
REMARK                            x       y       z     vdW  Elec       q    Type
REMARK                         _______ _______ _______ _____ _____    ______ ____
ROOT
ATOM      1  O   HOH     1      11.056  19.113  16.247  0.00  0.00    +0.000 OA
ENDROOT
TORSDOF 0
REMARK  Name = ../refined-set-2016/3t8v/3t8v_pocket.pdb
REMARK  279 active torsions:
REMARK  status: ('A' for Active; 'I' for Inactive)
REMARK    1  A    between atoms: _1  and  _3
REMARK    2  A    between atoms: _3  and  _4
REMARK    3  A    between atoms: _7  and  _9
REMARK    4  A    between atoms: _9  and  _10
REMARK    5  A    between atoms: _9  and  _12
REMARK    6  A    between atoms: _12  and  _13
REMARK    7  A    between atoms: _16  and  _18
REMARK    8  A    between atoms: _18  and  _19
REMARK    9  A    between atoms: _18  and  _21
REMARK   10  A    between atoms: _21  and  _22
REMARK   11  A    between atoms: _25  and  _27
REMARK   12  A    between atoms: _27  and  _28
REMARK   13  A    between atoms: _27  and  _30
REMARK   14  A    between atoms: _30  and  _31
REMARK   15  A    between atoms: _31  and  _32
REMARK   16  A    between atoms: _37  and  _39
REMARK   17  A    between atoms: _39  and  _40
REMARK   18  A    between atoms: _39  and  _42
REMARK   19  A    between atoms: _44  and  _46
REMARK   20  A    between atoms: _46  and  _47
REMARK   21  A    between atoms: _46  and  _49
REMARK   22  A    between atoms: _49  and  _50
REMARK   23  A    between atoms: _50  and  _51
REMARK   24  A    between atoms: _54  and  _56
REMARK   25  A    between atoms: _56  and  _57
REMARK   26  A    between atoms: _60  and  _62
REMARK   27  A    between atoms: _62  and  _63
REMARK   28  A    between atoms: _62  and  _65
REMARK   29  A    between atoms: _65  and  _66
REMARK   30  A    between atoms: _69  and  _71
REMARK   31  A    between atoms: _71  and  _72
REMARK   32  A    between atoms: _74  and  _76
REMARK   33  A    between atoms: _76  and  _77
REMARK   34  A    between atoms: _76  and  _79
REMARK   35  A    between atoms: _79  and  _80
REMARK   36  A    between atoms: _85  and  _86
REMARK   37  A    between atoms: _88  and  _90
REMARK   38  A    between atoms: _90  and  _91
REMARK   39  A    between atoms: _90  and  _93
REMARK   40  A    between atoms: _93  and  _94
REMARK   41  A    between atoms: _100  and  _102
REMARK   42  A    between atoms: _102  and  _103
REMARK   43  A    between atoms: _102  and  _105
REMARK   44  A    between atoms: _105  and  _106
REMARK   45  A    between atoms: _111  and  _113
REMARK   46  A    between atoms: _113  and  _114
REMARK   47  A    between atoms: _113  and  _116
REMARK   48  A    between atoms: _119  and  _121
REMARK   49  A    between atoms: _121  and  _122
REMARK   50  A    between atoms: _124  and  _126
REMARK   51  A    between atoms: _126  and  _127
REMARK   52  A    between atoms: _130  and  _132
REMARK   53  A    between atoms: _132  and  _133
REMARK   54  A    between atoms: _132  and  _135
REMARK   55  A    between atoms: _135  and  _136
REMARK   56  A    between atoms: _136  and  _137
REMARK   57  A    between atoms: _139  and  _141
REMARK   58  A    between atoms: _141  and  _142
REMARK   59  A    between atoms: _141  and  _144
REMARK   60  A    between atoms: _144  and  _145
REMARK   61  A    between atoms: _145  and  _146
REMARK   62  A    between atoms: _149  and  _151
REMARK   63  A    between atoms: _151  and  _152
REMARK   64  A    between atoms: _151  and  _154
REMARK   65  A    between atoms: _154  and  _155
REMARK   66  A    between atoms: _160  and  _162
REMARK   67  A    between atoms: _162  and  _163
REMARK   68  A    between atoms: _162  and  _165
REMARK   69  A    between atoms: _165  and  _166
REMARK   70  A    between atoms: _169  and  _171
REMARK   71  A    between atoms: _171  and  _172
REMARK   72  A    between atoms: _171  and  _174
REMARK   73  A    between atoms: _174  and  _175
REMARK   74  A    between atoms: _181  and  _183
REMARK   75  A    between atoms: _183  and  _184
REMARK   76  A    between atoms: _183  and  _186
REMARK   77  A    between atoms: _186  and  _187
REMARK   78  A    between atoms: _192  and  _194
REMARK   79  A    between atoms: _194  and  _195
REMARK   80  A    between atoms: _194  and  _197
REMARK   81  A    between atoms: _197  and  _198
REMARK   82  A    between atoms: _203  and  _205
REMARK   83  A    between atoms: _205  and  _206
REMARK   84  A    between atoms: _205  and  _208
REMARK   85  A    between atoms: _208  and  _209
REMARK   86  A    between atoms: _211  and  _213
REMARK   87  A    between atoms: _213  and  _214
REMARK   88  A    between atoms: _213  and  _216
REMARK   89  A    between atoms: _216  and  _217
REMARK   90  A    between atoms: _217  and  _218
REMARK   91  A    between atoms: _218  and  _219
REMARK   92  A    between atoms: _228  and  _230
REMARK   93  A    between atoms: _230  and  _231
REMARK   94  A    between atoms: _230  and  _233
REMARK   95  A    between atoms: _233  and  _234
REMARK   96  A    between atoms: _237  and  _239
REMARK   97  A    between atoms: _239  and  _240
REMARK   98  A    between atoms: _239  and  _242
REMARK   99  A    between atoms: _245  and  _247
REMARK  100  A    between atoms: _247  and  _248
REMARK  101  A    between atoms: _247  and  _250
REMARK  102  A    between atoms: _253  and  _255
REMARK  103  A    between atoms: _255  and  _256
REMARK  104  A    between atoms: _258  and  _260
REMARK  105  A    between atoms: _260  and  _261
REMARK  106  A    between atoms: _260  and  _263
REMARK  107  A    between atoms: _263  and  _264
REMARK  108  A    between atoms: _268  and  ZN_679
REMARK  109  A    between atoms: _269  and  _271
REMARK  110  A    between atoms: _271  and  _272
REMARK  111  A    between atoms: _271  and  _274
REMARK  112  A    between atoms: _274  and  _275
REMARK  113  A    between atoms: _275  and  _276
REMARK  114  A    between atoms: _279  and  _281
REMARK  115  A    between atoms: _281  and  _282
REMARK  116  A    between atoms: _281  and  _284
REMARK  117  A    between atoms: _284  and  _285
REMARK  118  A    between atoms: _290  and  _291
REMARK  119  A    between atoms: _293  and  _295
REMARK  120  A    between atoms: _295  and  _296
REMARK  121  A    between atoms: _295  and  _298
REMARK  122  A    between atoms: _298  and  _299
REMARK  123  A    between atoms: _303  and  ZN_679
REMARK  124  A    between atoms: _304  and  _306
REMARK  125  A    between atoms: _306  and  _307
REMARK  126  A    between atoms: _306  and  _309
REMARK  127  A    between atoms: _309  and  _310
REMARK  128  A    between atoms: _320  and  _322
REMARK  129  A    between atoms: _322  and  _323
REMARK  130  A    between atoms: _322  and  _325
REMARK  131  A    between atoms: _325  and  _326
REMARK  132  A    between atoms: _329  and  _331
REMARK  133  A    between atoms: _331  and  _332
REMARK  134  A    between atoms: _331  and  _334
REMARK  135  A    between atoms: _334  and  _335
REMARK  136  A    between atoms: _335  and  _336
REMARK  137  A    between atoms: _336  and  _337
REMARK  138  A    between atoms: _337  and  _338
REMARK  139  A    between atoms: _342  and  _344
REMARK  140  A    between atoms: _344  and  _345
REMARK  141  A    between atoms: _344  and  _347
REMARK  142  A    between atoms: _347  and  _348
REMARK  143  A    between atoms: _348  and  _349
REMARK  144  A    between atoms: _349  and  _350
REMARK  145  A    between atoms: _350  and  ZN_679
REMARK  146  A    between atoms: _352  and  _354
REMARK  147  A    between atoms: _354  and  _355
REMARK  148  A    between atoms: _354  and  _357
REMARK  149  A    between atoms: _357  and  _358
REMARK  150  A    between atoms: _361  and  _363
REMARK  151  A    between atoms: _363  and  _364
REMARK  152  A    between atoms: _363  and  _366
REMARK  153  A    between atoms: _369  and  _371
REMARK  154  A    between atoms: _371  and  _372
REMARK  155  A    between atoms: _371  and  _374
REMARK  156  A    between atoms: _374  and  _375
REMARK  157  A    between atoms: _375  and  _376
REMARK  158  A    between atoms: _379  and  _381
REMARK  159  A    between atoms: _381  and  _382
REMARK  160  A    between atoms: _381  and  _384
REMARK  161  A    between atoms: _384  and  _385
REMARK  162  A    between atoms: _385  and  _386
REMARK  163  A    between atoms: _389  and  _391
REMARK  164  A    between atoms: _391  and  _392
REMARK  165  A    between atoms: _391  and  _394
REMARK  166  A    between atoms: _394  and  _395
REMARK  167  A    between atoms: _398  and  _400
REMARK  168  A    between atoms: _400  and  _401
REMARK  169  A    between atoms: _400  and  _403
REMARK  170  A    between atoms: _403  and  _404
REMARK  171  A    between atoms: _409  and  _411
REMARK  172  A    between atoms: _411  and  _412
REMARK  173  A    between atoms: _411  and  _414
REMARK  174  A    between atoms: _414  and  _415
REMARK  175  A    between atoms: _417  and  _419
REMARK  176  A    between atoms: _419  and  _420
REMARK  177  A    between atoms: _419  and  _422
REMARK  178  A    between atoms: _422  and  _423
REMARK  179  A    between atoms: _423  and  _424
REMARK  180  A    between atoms: _426  and  _428
REMARK  181  A    between atoms: _428  and  _429
REMARK  182  A    between atoms: _432  and  _434
REMARK  183  A    between atoms: _434  and  _435
REMARK  184  A    between atoms: _434  and  _437
REMARK  185  A    between atoms: _437  and  _438
REMARK  186  A    between atoms: _443  and  _445
REMARK  187  A    between atoms: _445  and  _446
REMARK  188  A    between atoms: _445  and  _448
REMARK  189  A    between atoms: _448  and  _449
REMARK  190  A    between atoms: _455  and  _457
REMARK  191  A    between atoms: _457  and  _458
REMARK  192  A    between atoms: _457  and  _460
REMARK  193  A    between atoms: _460  and  _461
REMARK  194  A    between atoms: _466  and  _467
REMARK  195  A    between atoms: _469  and  _471
REMARK  196  A    between atoms: _471  and  _472
REMARK  197  A    between atoms: _471  and  _474
REMARK  198  A    between atoms: _474  and  _475
REMARK  199  A    between atoms: _478  and  _480
REMARK  200  A    between atoms: _480  and  _481
REMARK  201  A    between atoms: _480  and  _483
REMARK  202  A    between atoms: _483  and  _484
REMARK  203  A    between atoms: _487  and  _489
REMARK  204  A    between atoms: _489  and  _490
REMARK  205  A    between atoms: _489  and  _492
REMARK  206  A    between atoms: _492  and  _493
REMARK  207  A    between atoms: _496  and  _498
REMARK  208  A    between atoms: _498  and  _499
REMARK  209  A    between atoms: _498  and  _501
REMARK  210  A    between atoms: _501  and  _502
REMARK  211  A    between atoms: _507  and  _508
REMARK  212  A    between atoms: _510  and  _512
REMARK  213  A    between atoms: _512  and  _513
REMARK  214  A    between atoms: _512  and  _515
REMARK  215  A    between atoms: _515  and  _516
REMARK  216  A    between atoms: _519  and  _521
REMARK  217  A    between atoms: _521  and  _522
REMARK  218  A    between atoms: _521  and  _524
REMARK  219  A    between atoms: _524  and  _525
REMARK  220  A    between atoms: _525  and  _526
REMARK  221  A    between atoms: _526  and  _527
REMARK  222  A    between atoms: _536  and  _538
REMARK  223  A    between atoms: _538  and  _539
REMARK  224  A    between atoms: _538  and  _541
REMARK  225  A    between atoms: _541  and  _542
REMARK  226  A    between atoms: _548  and  _549
REMARK  227  A    between atoms: _554  and  _556
REMARK  228  A    between atoms: _556  and  _557
REMARK  229  A    between atoms: _556  and  _559
REMARK  230  A    between atoms: _559  and  _560
REMARK  231  A    between atoms: _560  and  _561
REMARK  232  A    between atoms: _563  and  _565
REMARK  233  A    between atoms: _565  and  _566
REMARK  234  A    between atoms: _565  and  _568
REMARK  235  A    between atoms: _571  and  _573
REMARK  236  A    between atoms: _573  and  _574
REMARK  237  A    between atoms: _577  and  _579
REMARK  238  A    between atoms: _579  and  _580
REMARK  239  A    between atoms: _579  and  _582
REMARK  240  A    between atoms: _582  and  _583
REMARK  241  A    between atoms: _586  and  _588
REMARK  242  A    between atoms: _588  and  _589
REMARK  243  A    between atoms: _588  and  _591
REMARK  244  A    between atoms: _591  and  _592
REMARK  245  A    between atoms: _592  and  _593
REMARK  246  A    between atoms: _598  and  _600
REMARK  247  A    between atoms: _600  and  _601
REMARK  248  A    between atoms: _600  and  _603
REMARK  249  A    between atoms: _603  and  _604
REMARK  250  A    between atoms: _607  and  _609
REMARK  251  A    between atoms: _609  and  _610
REMARK  252  A    between atoms: _609  and  _612
REMARK  253  A    between atoms: _614  and  _616
REMARK  254  A    between atoms: _616  and  _617
REMARK  255  A    between atoms: _616  and  _619
REMARK  256  A    between atoms: _619  and  _620
REMARK  257  A    between atoms: _620  and  _621
REMARK  258  A    between atoms: _624  and  _626
REMARK  259  A    between atoms: _626  and  _627
REMARK  260  A    between atoms: _626  and  _629
REMARK  261  A    between atoms: _629  and  _630
REMARK  262  A    between atoms: _630  and  _631
REMARK  263  A    between atoms: _631  and  _632
REMARK  264  A    between atoms: _632  and  _633
REMARK  265  A    between atoms: _637  and  _639
REMARK  266  A    between atoms: _639  and  _640
REMARK  267  A    between atoms: _639  and  _642
REMARK  268  A    between atoms: _642  and  _643
REMARK  269  A    between atoms: _648  and  _650
REMARK  270  A    between atoms: _650  and  _651
REMARK  271  A    between atoms: _650  and  _653
REMARK  272  A    between atoms: _653  and  _654
REMARK  273  A    between atoms: _659  and  _660
REMARK  274  A    between atoms: _662  and  _664
REMARK  275  A    between atoms: _664  and  _665
REMARK  276  A    between atoms: _664  and  _667
REMARK  277  A    between atoms: _667  and  _668
REMARK  278  A    between atoms: _668  and  _669
REMARK  279  A    between atoms: _669  and  _670
REMARK                            x       y       z     vdW  Elec       q    Type
REMARK                         _______ _______ _______ _____ _____    ______ ____
ROOT
ATOM      1  O   HOH     1      16.911  14.568  18.218  0.00  0.00    +0.000 OA
ENDROOT
TORSDOF 0
REMARK  Name = ../refined-set-2016/3t8v/3t8v_pocket.pdb
REMARK  279 active torsions:
REMARK  status: ('A' for Active; 'I' for Inactive)
REMARK    1  A    between atoms: _1  and  _3
REMARK    2  A    between atoms: _3  and  _4
REMARK    3  A    between atoms: _7  and  _9
REMARK    4  A    between atoms: _9  and  _10
REMARK    5  A    between atoms: _9  and  _12
REMARK    6  A    between atoms: _12  and  _13
REMARK    7  A    between atoms: _16  and  _18
REMARK    8  A    between atoms: _18  and  _19
REMARK    9  A    between atoms: _18  and  _21
REMARK   10  A    between atoms: _21  and  _22
REMARK   11  A    between atoms: _25  and  _27
REMARK   12  A    between atoms: _27  and  _28
REMARK   13  A    between atoms: _27  and  _30
REMARK   14  A    between atoms: _30  and  _31
REMARK   15  A    between atoms: _31  and  _32
REMARK   16  A    between atoms: _37  and  _39
REMARK   17  A    between atoms: _39  and  _40
REMARK   18  A    between atoms: _39  and  _42
REMARK   19  A    between atoms: _44  and  _46
REMARK   20  A    between atoms: _46  and  _47
REMARK   21  A    between atoms: _46  and  _49
REMARK   22  A    between atoms: _49  and  _50
REMARK   23  A    between atoms: _50  and  _51
REMARK   24  A    between atoms: _54  and  _56
REMARK   25  A    between atoms: _56  and  _57
REMARK   26  A    between atoms: _60  and  _62
REMARK   27  A    between atoms: _62  and  _63
REMARK   28  A    between atoms: _62  and  _65
REMARK   29  A    between atoms: _65  and  _66
REMARK   30  A    between atoms: _69  and  _71
REMARK   31  A    between atoms: _71  and  _72
REMARK   32  A    between atoms: _74  and  _76
REMARK   33  A    between atoms: _76  and  _77
REMARK   34  A    between atoms: _76  and  _79
REMARK   35  A    between atoms: _79  and  _80
REMARK   36  A    between atoms: _85  and  _86
REMARK   37  A    between atoms: _88  and  _90
REMARK   38  A    between atoms: _90  and  _91
REMARK   39  A    between atoms: _90  and  _93
REMARK   40  A    between atoms: _93  and  _94
REMARK   41  A    between atoms: _100  and  _102
REMARK   42  A    between atoms: _102  and  _103
REMARK   43  A    between atoms: _102  and  _105
REMARK   44  A    between atoms: _105  and  _106
REMARK   45  A    between atoms: _111  and  _113
REMARK   46  A    between atoms: _113  and  _114
REMARK   47  A    between atoms: _113  and  _116
REMARK   48  A    between atoms: _119  and  _121
REMARK   49  A    between atoms: _121  and  _122
REMARK   50  A    between atoms: _124  and  _126
REMARK   51  A    between atoms: _126  and  _127
REMARK   52  A    between atoms: _130  and  _132
REMARK   53  A    between atoms: _132  and  _133
REMARK   54  A    between atoms: _132  and  _135
REMARK   55  A    between atoms: _135  and  _136
REMARK   56  A    between atoms: _136  and  _137
REMARK   57  A    between atoms: _139  and  _141
REMARK   58  A    between atoms: _141  and  _142
REMARK   59  A    between atoms: _141  and  _144
REMARK   60  A    between atoms: _144  and  _145
REMARK   61  A    between atoms: _145  and  _146
REMARK   62  A    between atoms: _149  and  _151
REMARK   63  A    between atoms: _151  and  _152
REMARK   64  A    between atoms: _151  and  _154
REMARK   65  A    between atoms: _154  and  _155
REMARK   66  A    between atoms: _160  and  _162
REMARK   67  A    between atoms: _162  and  _163
REMARK   68  A    between atoms: _162  and  _165
REMARK   69  A    between atoms: _165  and  _166
REMARK   70  A    between atoms: _169  and  _171
REMARK   71  A    between atoms: _171  and  _172
REMARK   72  A    between atoms: _171  and  _174
REMARK   73  A    between atoms: _174  and  _175
REMARK   74  A    between atoms: _181  and  _183
REMARK   75  A    between atoms: _183  and  _184
REMARK   76  A    between atoms: _183  and  _186
REMARK   77  A    between atoms: _186  and  _187
REMARK   78  A    between atoms: _192  and  _194
REMARK   79  A    between atoms: _194  and  _195
REMARK   80  A    between atoms: _194  and  _197
REMARK   81  A    between atoms: _197  and  _198
REMARK   82  A    between atoms: _203  and  _205
REMARK   83  A    between atoms: _205  and  _206
REMARK   84  A    between atoms: _205  and  _208
REMARK   85  A    between atoms: _208  and  _209
REMARK   86  A    between atoms: _211  and  _213
REMARK   87  A    between atoms: _213  and  _214
REMARK   88  A    between atoms: _213  and  _216
REMARK   89  A    between atoms: _216  and  _217
REMARK   90  A    between atoms: _217  and  _218
REMARK   91  A    between atoms: _218  and  _219
REMARK   92  A    between atoms: _228  and  _230
REMARK   93  A    between atoms: _230  and  _231
REMARK   94  A    between atoms: _230  and  _233
REMARK   95  A    between atoms: _233  and  _234
REMARK   96  A    between atoms: _237  and  _239
REMARK   97  A    between atoms: _239  and  _240
REMARK   98  A    between atoms: _239  and  _242
REMARK   99  A    between atoms: _245  and  _247
REMARK  100  A    between atoms: _247  and  _248
REMARK  101  A    between atoms: _247  and  _250
REMARK  102  A    between atoms: _253  and  _255
REMARK  103  A    between atoms: _255  and  _256
REMARK  104  A    between atoms: _258  and  _260
REMARK  105  A    between atoms: _260  and  _261
REMARK  106  A    between atoms: _260  and  _263
REMARK  107  A    between atoms: _263  and  _264
REMARK  108  A    between atoms: _268  and  ZN_679
REMARK  109  A    between atoms: _269  and  _271
REMARK  110  A    between atoms: _271  and  _272
REMARK  111  A    between atoms: _271  and  _274
REMARK  112  A    between atoms: _274  and  _275
REMARK  113  A    between atoms: _275  and  _276
REMARK  114  A    between atoms: _279  and  _281
REMARK  115  A    between atoms: _281  and  _282
REMARK  116  A    between atoms: _281  and  _284
REMARK  117  A    between atoms: _284  and  _285
REMARK  118  A    between atoms: _290  and  _291
REMARK  119  A    between atoms: _293  and  _295
REMARK  120  A    between atoms: _295  and  _296
REMARK  121  A    between atoms: _295  and  _298
REMARK  122  A    between atoms: _298  and  _299
REMARK  123  A    between atoms: _303  and  ZN_679
REMARK  124  A    between atoms: _304  and  _306
REMARK  125  A    between atoms: _306  and  _307
REMARK  126  A    between atoms: _306  and  _309
REMARK  127  A    between atoms: _309  and  _310
REMARK  128  A    between atoms: _320  and  _322
REMARK  129  A    between atoms: _322  and  _323
REMARK  130  A    between atoms: _322  and  _325
REMARK  131  A    between atoms: _325  and  _326
REMARK  132  A    between atoms: _329  and  _331
REMARK  133  A    between atoms: _331  and  _332
REMARK  134  A    between atoms: _331  and  _334
REMARK  135  A    between atoms: _334  and  _335
REMARK  136  A    between atoms: _335  and  _336
REMARK  137  A    between atoms: _336  and  _337
REMARK  138  A    between atoms: _337  and  _338
REMARK  139  A    between atoms: _342  and  _344
REMARK  140  A    between atoms: _344  and  _345
REMARK  141  A    between atoms: _344  and  _347
REMARK  142  A    between atoms: _347  and  _348
REMARK  143  A    between atoms: _348  and  _349
REMARK  144  A    between atoms: _349  and  _350
REMARK  145  A    between atoms: _350  and  ZN_679
REMARK  146  A    between atoms: _352  and  _354
REMARK  147  A    between atoms: _354  and  _355
REMARK  148  A    between atoms: _354  and  _357
REMARK  149  A    between atoms: _357  and  _358
REMARK  150  A    between atoms: _361  and  _363
REMARK  151  A    between atoms: _363  and  _364
REMARK  152  A    between atoms: _363  and  _366
REMARK  153  A    between atoms: _369  and  _371
REMARK  154  A    between atoms: _371  and  _372
REMARK  155  A    between atoms: _371  and  _374
REMARK  156  A    between atoms: _374  and  _375
REMARK  157  A    between atoms: _375  and  _376
REMARK  158  A    between atoms: _379  and  _381
REMARK  159  A    between atoms: _381  and  _382
REMARK  160  A    between atoms: _381  and  _384
REMARK  161  A    between atoms: _384  and  _385
REMARK  162  A    between atoms: _385  and  _386
REMARK  163  A    between atoms: _389  and  _391
REMARK  164  A    between atoms: _391  and  _392
REMARK  165  A    between atoms: _391  and  _394
REMARK  166  A    between atoms: _394  and  _395
REMARK  167  A    between atoms: _398  and  _400
REMARK  168  A    between atoms: _400  and  _401
REMARK  169  A    between atoms: _400  and  _403
REMARK  170  A    between atoms: _403  and  _404
REMARK  171  A    between atoms: _409  and  _411
REMARK  172  A    between atoms: _411  and  _412
REMARK  173  A    between atoms: _411  and  _414
REMARK  174  A    between atoms: _414  and  _415
REMARK  175  A    between atoms: _417  and  _419
REMARK  176  A    between atoms: _419  and  _420
REMARK  177  A    between atoms: _419  and  _422
REMARK  178  A    between atoms: _422  and  _423
REMARK  179  A    between atoms: _423  and  _424
REMARK  180  A    between atoms: _426  and  _428
REMARK  181  A    between atoms: _428  and  _429
REMARK  182  A    between atoms: _432  and  _434
REMARK  183  A    between atoms: _434  and  _435
REMARK  184  A    between atoms: _434  and  _437
REMARK  185  A    between atoms: _437  and  _438
REMARK  186  A    between atoms: _443  and  _445
REMARK  187  A    between atoms: _445  and  _446
REMARK  188  A    between atoms: _445  and  _448
REMARK  189  A    between atoms: _448  and  _449
REMARK  190  A    between atoms: _455  and  _457
REMARK  191  A    between atoms: _457  and  _458
REMARK  192  A    between atoms: _457  and  _460
REMARK  193  A    between atoms: _460  and  _461
REMARK  194  A    between atoms: _466  and  _467
REMARK  195  A    between atoms: _469  and  _471
REMARK  196  A    between atoms: _471  and  _472
REMARK  197  A    between atoms: _471  and  _474
REMARK  198  A    between atoms: _474  and  _475
REMARK  199  A    between atoms: _478  and  _480
REMARK  200  A    between atoms: _480  and  _481
REMARK  201  A    between atoms: _480  and  _483
REMARK  202  A    between atoms: _483  and  _484
REMARK  203  A    between atoms: _487  and  _489
REMARK  204  A    between atoms: _489  and  _490
REMARK  205  A    between atoms: _489  and  _492
REMARK  206  A    between atoms: _492  and  _493
REMARK  207  A    between atoms: _496  and  _498
REMARK  208  A    between atoms: _498  and  _499
REMARK  209  A    between atoms: _498  and  _501
REMARK  210  A    between atoms: _501  and  _502
REMARK  211  A    between atoms: _507  and  _508
REMARK  212  A    between atoms: _510  and  _512
REMARK  213  A    between atoms: _512  and  _513
REMARK  214  A    between atoms: _512  and  _515
REMARK  215  A    between atoms: _515  and  _516
REMARK  216  A    between atoms: _519  and  _521
REMARK  217  A    between atoms: _521  and  _522
REMARK  218  A    between atoms: _521  and  _524
REMARK  219  A    between atoms: _524  and  _525
REMARK  220  A    between atoms: _525  and  _526
REMARK  221  A    between atoms: _526  and  _527
REMARK  222  A    between atoms: _536  and  _538
REMARK  223  A    between atoms: _538  and  _539
REMARK  224  A    between atoms: _538  and  _541
REMARK  225  A    between atoms: _541  and  _542
REMARK  226  A    between atoms: _548  and  _549
REMARK  227  A    between atoms: _554  and  _556
REMARK  228  A    between atoms: _556  and  _557
REMARK  229  A    between atoms: _556  and  _559
REMARK  230  A    between atoms: _559  and  _560
REMARK  231  A    between atoms: _560  and  _561
REMARK  232  A    between atoms: _563  and  _565
REMARK  233  A    between atoms: _565  and  _566
REMARK  234  A    between atoms: _565  and  _568
REMARK  235  A    between atoms: _571  and  _573
REMARK  236  A    between atoms: _573  and  _574
REMARK  237  A    between atoms: _577  and  _579
REMARK  238  A    between atoms: _579  and  _580
REMARK  239  A    between atoms: _579  and  _582
REMARK  240  A    between atoms: _582  and  _583
REMARK  241  A    between atoms: _586  and  _588
REMARK  242  A    between atoms: _588  and  _589
REMARK  243  A    between atoms: _588  and  _591
REMARK  244  A    between atoms: _591  and  _592
REMARK  245  A    between atoms: _592  and  _593
REMARK  246  A    between atoms: _598  and  _600
REMARK  247  A    between atoms: _600  and  _601
REMARK  248  A    between atoms: _600  and  _603
REMARK  249  A    between atoms: _603  and  _604
REMARK  250  A    between atoms: _607  and  _609
REMARK  251  A    between atoms: _609  and  _610
REMARK  252  A    between atoms: _609  and  _612
REMARK  253  A    between atoms: _614  and  _616
REMARK  254  A    between atoms: _616  and  _617
REMARK  255  A    between atoms: _616  and  _619
REMARK  256  A    between atoms: _619  and  _620
REMARK  257  A    between atoms: _620  and  _621
REMARK  258  A    between atoms: _624  and  _626
REMARK  259  A    between atoms: _626  and  _627
REMARK  260  A    between atoms: _626  and  _629
REMARK  261  A    between atoms: _629  and  _630
REMARK  262  A    between atoms: _630  and  _631
REMARK  263  A    between atoms: _631  and  _632
REMARK  264  A    between atoms: _632  and  _633
REMARK  265  A    between atoms: _637  and  _639
REMARK  266  A    between atoms: _639  and  _640
REMARK  267  A    between atoms: _639  and  _642
REMARK  268  A    between atoms: _642  and  _643
REMARK  269  A    between atoms: _648  and  _650
REMARK  270  A    between atoms: _650  and  _651
REMARK  271  A    between atoms: _650  and  _653
REMARK  272  A    between atoms: _653  and  _654
REMARK  273  A    between atoms: _659  and  _660
REMARK  274  A    between atoms: _662  and  _664
REMARK  275  A    between atoms: _664  and  _665
REMARK  276  A    between atoms: _664  and  _667
REMARK  277  A    between atoms: _667  and  _668
REMARK  278  A    between atoms: _668  and  _669
REMARK  279  A    between atoms: _669  and  _670
REMARK                            x       y       z     vdW  Elec       q    Type
REMARK                         _______ _______ _______ _____ _____    ______ ____
ROOT
ATOM      1  O   HOH     1       6.945  15.854   9.546  0.00  0.00    +0.000 OA
ENDROOT
TORSDOF 0
REMARK  Name = ../refined-set-2016/3t8v/3t8v_pocket.pdb
REMARK  279 active torsions:
REMARK  status: ('A' for Active; 'I' for Inactive)
REMARK    1  A    between atoms: _1  and  _3
REMARK    2  A    between atoms: _3  and  _4
REMARK    3  A    between atoms: _7  and  _9
REMARK    4  A    between atoms: _9  and  _10
REMARK    5  A    between atoms: _9  and  _12
REMARK    6  A    between atoms: _12  and  _13
REMARK    7  A    between atoms: _16  and  _18
REMARK    8  A    between atoms: _18  and  _19
REMARK    9  A    between atoms: _18  and  _21
REMARK   10  A    between atoms: _21  and  _22
REMARK   11  A    between atoms: _25  and  _27
REMARK   12  A    between atoms: _27  and  _28
REMARK   13  A    between atoms: _27  and  _30
REMARK   14  A    between atoms: _30  and  _31
REMARK   15  A    between atoms: _31  and  _32
REMARK   16  A    between atoms: _37  and  _39
REMARK   17  A    between atoms: _39  and  _40
REMARK   18  A    between atoms: _39  and  _42
REMARK   19  A    between atoms: _44  and  _46
REMARK   20  A    between atoms: _46  and  _47
REMARK   21  A    between atoms: _46  and  _49
REMARK   22  A    between atoms: _49  and  _50
REMARK   23  A    between atoms: _50  and  _51
REMARK   24  A    between atoms: _54  and  _56
REMARK   25  A    between atoms: _56  and  _57
REMARK   26  A    between atoms: _60  and  _62
REMARK   27  A    between atoms: _62  and  _63
REMARK   28  A    between atoms: _62  and  _65
REMARK   29  A    between atoms: _65  and  _66
REMARK   30  A    between atoms: _69  and  _71
REMARK   31  A    between atoms: _71  and  _72
REMARK   32  A    between atoms: _74  and  _76
REMARK   33  A    between atoms: _76  and  _77
REMARK   34  A    between atoms: _76  and  _79
REMARK   35  A    between atoms: _79  and  _80
REMARK   36  A    between atoms: _85  and  _86
REMARK   37  A    between atoms: _88  and  _90
REMARK   38  A    between atoms: _90  and  _91
REMARK   39  A    between atoms: _90  and  _93
REMARK   40  A    between atoms: _93  and  _94
REMARK   41  A    between atoms: _100  and  _102
REMARK   42  A    between atoms: _102  and  _103
REMARK   43  A    between atoms: _102  and  _105
REMARK   44  A    between atoms: _105  and  _106
REMARK   45  A    between atoms: _111  and  _113
REMARK   46  A    between atoms: _113  and  _114
REMARK   47  A    between atoms: _113  and  _116
REMARK   48  A    between atoms: _119  and  _121
REMARK   49  A    between atoms: _121  and  _122
REMARK   50  A    between atoms: _124  and  _126
REMARK   51  A    between atoms: _126  and  _127
REMARK   52  A    between atoms: _130  and  _132
REMARK   53  A    between atoms: _132  and  _133
REMARK   54  A    between atoms: _132  and  _135
REMARK   55  A    between atoms: _135  and  _136
REMARK   56  A    between atoms: _136  and  _137
REMARK   57  A    between atoms: _139  and  _141
REMARK   58  A    between atoms: _141  and  _142
REMARK   59  A    between atoms: _141  and  _144
REMARK   60  A    between atoms: _144  and  _145
REMARK   61  A    between atoms: _145  and  _146
REMARK   62  A    between atoms: _149  and  _151
REMARK   63  A    between atoms: _151  and  _152
REMARK   64  A    between atoms: _151  and  _154
REMARK   65  A    between atoms: _154  and  _155
REMARK   66  A    between atoms: _160  and  _162
REMARK   67  A    between atoms: _162  and  _163
REMARK   68  A    between atoms: _162  and  _165
REMARK   69  A    between atoms: _165  and  _166
REMARK   70  A    between atoms: _169  and  _171
REMARK   71  A    between atoms: _171  and  _172
REMARK   72  A    between atoms: _171  and  _174
REMARK   73  A    between atoms: _174  and  _175
REMARK   74  A    between atoms: _181  and  _183
REMARK   75  A    between atoms: _183  and  _184
REMARK   76  A    between atoms: _183  and  _186
REMARK   77  A    between atoms: _186  and  _187
REMARK   78  A    between atoms: _192  and  _194
REMARK   79  A    between atoms: _194  and  _195
REMARK   80  A    between atoms: _194  and  _197
REMARK   81  A    between atoms: _197  and  _198
REMARK   82  A    between atoms: _203  and  _205
REMARK   83  A    between atoms: _205  and  _206
REMARK   84  A    between atoms: _205  and  _208
REMARK   85  A    between atoms: _208  and  _209
REMARK   86  A    between atoms: _211  and  _213
REMARK   87  A    between atoms: _213  and  _214
REMARK   88  A    between atoms: _213  and  _216
REMARK   89  A    between atoms: _216  and  _217
REMARK   90  A    between atoms: _217  and  _218
REMARK   91  A    between atoms: _218  and  _219
REMARK   92  A    between atoms: _228  and  _230
REMARK   93  A    between atoms: _230  and  _231
REMARK   94  A    between atoms: _230  and  _233
REMARK   95  A    between atoms: _233  and  _234
REMARK   96  A    between atoms: _237  and  _239
REMARK   97  A    between atoms: _239  and  _240
REMARK   98  A    between atoms: _239  and  _242
REMARK   99  A    between atoms: _245  and  _247
REMARK  100  A    between atoms: _247  and  _248
REMARK  101  A    between atoms: _247  and  _250
REMARK  102  A    between atoms: _253  and  _255
REMARK  103  A    between atoms: _255  and  _256
REMARK  104  A    between atoms: _258  and  _260
REMARK  105  A    between atoms: _260  and  _261
REMARK  106  A    between atoms: _260  and  _263
REMARK  107  A    between atoms: _263  and  _264
REMARK  108  A    between atoms: _268  and  ZN_679
REMARK  109  A    between atoms: _269  and  _271
REMARK  110  A    between atoms: _271  and  _272
REMARK  111  A    between atoms: _271  and  _274
REMARK  112  A    between atoms: _274  and  _275
REMARK  113  A    between atoms: _275  and  _276
REMARK  114  A    between atoms: _279  and  _281
REMARK  115  A    between atoms: _281  and  _282
REMARK  116  A    between atoms: _281  and  _284
REMARK  117  A    between atoms: _284  and  _285
REMARK  118  A    between atoms: _290  and  _291
REMARK  119  A    between atoms: _293  and  _295
REMARK  120  A    between atoms: _295  and  _296
REMARK  121  A    between atoms: _295  and  _298
REMARK  122  A    between atoms: _298  and  _299
REMARK  123  A    between atoms: _303  and  ZN_679
REMARK  124  A    between atoms: _304  and  _306
REMARK  125  A    between atoms: _306  and  _307
REMARK  126  A    between atoms: _306  and  _309
REMARK  127  A    between atoms: _309  and  _310
REMARK  128  A    between atoms: _320  and  _322
REMARK  129  A    between atoms: _322  and  _323
REMARK  130  A    between atoms: _322  and  _325
REMARK  131  A    between atoms: _325  and  _326
REMARK  132  A    between atoms: _329  and  _331
REMARK  133  A    between atoms: _331  and  _332
REMARK  134  A    between atoms: _331  and  _334
REMARK  135  A    between atoms: _334  and  _335
REMARK  136  A    between atoms: _335  and  _336
REMARK  137  A    between atoms: _336  and  _337
REMARK  138  A    between atoms: _337  and  _338
REMARK  139  A    between atoms: _342  and  _344
REMARK  140  A    between atoms: _344  and  _345
REMARK  141  A    between atoms: _344  and  _347
REMARK  142  A    between atoms: _347  and  _348
REMARK  143  A    between atoms: _348  and  _349
REMARK  144  A    between atoms: _349  and  _350
REMARK  145  A    between atoms: _350  and  ZN_679
REMARK  146  A    between atoms: _352  and  _354
REMARK  147  A    between atoms: _354  and  _355
REMARK  148  A    between atoms: _354  and  _357
REMARK  149  A    between atoms: _357  and  _358
REMARK  150  A    between atoms: _361  and  _363
REMARK  151  A    between atoms: _363  and  _364
REMARK  152  A    between atoms: _363  and  _366
REMARK  153  A    between atoms: _369  and  _371
REMARK  154  A    between atoms: _371  and  _372
REMARK  155  A    between atoms: _371  and  _374
REMARK  156  A    between atoms: _374  and  _375
REMARK  157  A    between atoms: _375  and  _376
REMARK  158  A    between atoms: _379  and  _381
REMARK  159  A    between atoms: _381  and  _382
REMARK  160  A    between atoms: _381  and  _384
REMARK  161  A    between atoms: _384  and  _385
REMARK  162  A    between atoms: _385  and  _386
REMARK  163  A    between atoms: _389  and  _391
REMARK  164  A    between atoms: _391  and  _392
REMARK  165  A    between atoms: _391  and  _394
REMARK  166  A    between atoms: _394  and  _395
REMARK  167  A    between atoms: _398  and  _400
REMARK  168  A    between atoms: _400  and  _401
REMARK  169  A    between atoms: _400  and  _403
REMARK  170  A    between atoms: _403  and  _404
REMARK  171  A    between atoms: _409  and  _411
REMARK  172  A    between atoms: _411  and  _412
REMARK  173  A    between atoms: _411  and  _414
REMARK  174  A    between atoms: _414  and  _415
REMARK  175  A    between atoms: _417  and  _419
REMARK  176  A    between atoms: _419  and  _420
REMARK  177  A    between atoms: _419  and  _422
REMARK  178  A    between atoms: _422  and  _423
REMARK  179  A    between atoms: _423  and  _424
REMARK  180  A    between atoms: _426  and  _428
REMARK  181  A    between atoms: _428  and  _429
REMARK  182  A    between atoms: _432  and  _434
REMARK  183  A    between atoms: _434  and  _435
REMARK  184  A    between atoms: _434  and  _437
REMARK  185  A    between atoms: _437  and  _438
REMARK  186  A    between atoms: _443  and  _445
REMARK  187  A    between atoms: _445  and  _446
REMARK  188  A    between atoms: _445  and  _448
REMARK  189  A    between atoms: _448  and  _449
REMARK  190  A    between atoms: _455  and  _457
REMARK  191  A    between atoms: _457  and  _458
REMARK  192  A    between atoms: _457  and  _460
REMARK  193  A    between atoms: _460  and  _461
REMARK  194  A    between atoms: _466  and  _467
REMARK  195  A    between atoms: _469  and  _471
REMARK  196  A    between atoms: _471  and  _472
REMARK  197  A    between atoms: _471  and  _474
REMARK  198  A    between atoms: _474  and  _475
REMARK  199  A    between atoms: _478  and  _480
REMARK  200  A    between atoms: _480  and  _481
REMARK  201  A    between atoms: _480  and  _483
REMARK  202  A    between atoms: _483  and  _484
REMARK  203  A    between atoms: _487  and  _489
REMARK  204  A    between atoms: _489  and  _490
REMARK  205  A    between atoms: _489  and  _492
REMARK  206  A    between atoms: _492  and  _493
REMARK  207  A    between atoms: _496  and  _498
REMARK  208  A    between atoms: _498  and  _499
REMARK  209  A    between atoms: _498  and  _501
REMARK  210  A    between atoms: _501  and  _502
REMARK  211  A    between atoms: _507  and  _508
REMARK  212  A    between atoms: _510  and  _512
REMARK  213  A    between atoms: _512  and  _513
REMARK  214  A    between atoms: _512  and  _515
REMARK  215  A    between atoms: _515  and  _516
REMARK  216  A    between atoms: _519  and  _521
REMARK  217  A    between atoms: _521  and  _522
REMARK  218  A    between atoms: _521  and  _524
REMARK  219  A    between atoms: _524  and  _525
REMARK  220  A    between atoms: _525  and  _526
REMARK  221  A    between atoms: _526  and  _527
REMARK  222  A    between atoms: _536  and  _538
REMARK  223  A    between atoms: _538  and  _539
REMARK  224  A    between atoms: _538  and  _541
REMARK  225  A    between atoms: _541  and  _542
REMARK  226  A    between atoms: _548  and  _549
REMARK  227  A    between atoms: _554  and  _556
REMARK  228  A    between atoms: _556  and  _557
REMARK  229  A    between atoms: _556  and  _559
REMARK  230  A    between atoms: _559  and  _560
REMARK  231  A    between atoms: _560  and  _561
REMARK  232  A    between atoms: _563  and  _565
REMARK  233  A    between atoms: _565  and  _566
REMARK  234  A    between atoms: _565  and  _568
REMARK  235  A    between atoms: _571  and  _573
REMARK  236  A    between atoms: _573  and  _574
REMARK  237  A    between atoms: _577  and  _579
REMARK  238  A    between atoms: _579  and  _580
REMARK  239  A    between atoms: _579  and  _582
REMARK  240  A    between atoms: _582  and  _583
REMARK  241  A    between atoms: _586  and  _588
REMARK  242  A    between atoms: _588  and  _589
REMARK  243  A    between atoms: _588  and  _591
REMARK  244  A    between atoms: _591  and  _592
REMARK  245  A    between atoms: _592  and  _593
REMARK  246  A    between atoms: _598  and  _600
REMARK  247  A    between atoms: _600  and  _601
REMARK  248  A    between atoms: _600  and  _603
REMARK  249  A    between atoms: _603  and  _604
REMARK  250  A    between atoms: _607  and  _609
REMARK  251  A    between atoms: _609  and  _610
REMARK  252  A    between atoms: _609  and  _612
REMARK  253  A    between atoms: _614  and  _616
REMARK  254  A    between atoms: _616  and  _617
REMARK  255  A    between atoms: _616  and  _619
REMARK  256  A    between atoms: _619  and  _620
REMARK  257  A    between atoms: _620  and  _621
REMARK  258  A    between atoms: _624  and  _626
REMARK  259  A    between atoms: _626  and  _627
REMARK  260  A    between atoms: _626  and  _629
REMARK  261  A    between atoms: _629  and  _630
REMARK  262  A    between atoms: _630  and  _631
REMARK  263  A    between atoms: _631  and  _632
REMARK  264  A    between atoms: _632  and  _633
REMARK  265  A    between atoms: _637  and  _639
REMARK  266  A    between atoms: _639  and  _640
REMARK  267  A    between atoms: _639  and  _642
REMARK  268  A    between atoms: _642  and  _643
REMARK  269  A    between atoms: _648  and  _650
REMARK  270  A    between atoms: _650  and  _651
REMARK  271  A    between atoms: _650  and  _653
REMARK  272  A    between atoms: _653  and  _654
REMARK  273  A    between atoms: _659  and  _660
REMARK  274  A    between atoms: _662  and  _664
REMARK  275  A    between atoms: _664  and  _665
REMARK  276  A    between atoms: _664  and  _667
REMARK  277  A    between atoms: _667  and  _668
REMARK  278  A    between atoms: _668  and  _669
REMARK  279  A    between atoms: _669  and  _670
REMARK                            x       y       z     vdW  Elec       q    Type
REMARK                         _______ _______ _______ _____ _____    ______ ____
ROOT
ATOM      1  O   HOH     1      14.224  -0.310  16.510  0.00  0.00    +0.000 OA
ENDROOT
TORSDOF 0
REMARK  Name = ../refined-set-2016/3t8v/3t8v_pocket.pdb
REMARK  279 active torsions:
REMARK  status: ('A' for Active; 'I' for Inactive)
REMARK    1  A    between atoms: _1  and  _3
REMARK    2  A    between atoms: _3  and  _4
REMARK    3  A    between atoms: _7  and  _9
REMARK    4  A    between atoms: _9  and  _10
REMARK    5  A    between atoms: _9  and  _12
REMARK    6  A    between atoms: _12  and  _13
REMARK    7  A    between atoms: _16  and  _18
REMARK    8  A    between atoms: _18  and  _19
REMARK    9  A    between atoms: _18  and  _21
REMARK   10  A    between atoms: _21  and  _22
REMARK   11  A    between atoms: _25  and  _27
REMARK   12  A    between atoms: _27  and  _28
REMARK   13  A    between atoms: _27  and  _30
REMARK   14  A    between atoms: _30  and  _31
REMARK   15  A    between atoms: _31  and  _32
REMARK   16  A    between atoms: _37  and  _39
REMARK   17  A    between atoms: _39  and  _40
REMARK   18  A    between atoms: _39  and  _42
REMARK   19  A    between atoms: _44  and  _46
REMARK   20  A    between atoms: _46  and  _47
REMARK   21  A    between atoms: _46  and  _49
REMARK   22  A    between atoms: _49  and  _50
REMARK   23  A    between atoms: _50  and  _51
REMARK   24  A    between atoms: _54  and  _56
REMARK   25  A    between atoms: _56  and  _57
REMARK   26  A    between atoms: _60  and  _62
REMARK   27  A    between atoms: _62  and  _63
REMARK   28  A    between atoms: _62  and  _65
REMARK   29  A    between atoms: _65  and  _66
REMARK   30  A    between atoms: _69  and  _71
REMARK   31  A    between atoms: _71  and  _72
REMARK   32  A    between atoms: _74  and  _76
REMARK   33  A    between atoms: _76  and  _77
REMARK   34  A    between atoms: _76  and  _79
REMARK   35  A    between atoms: _79  and  _80
REMARK   36  A    between atoms: _85  and  _86
REMARK   37  A    between atoms: _88  and  _90
REMARK   38  A    between atoms: _90  and  _91
REMARK   39  A    between atoms: _90  and  _93
REMARK   40  A    between atoms: _93  and  _94
REMARK   41  A    between atoms: _100  and  _102
REMARK   42  A    between atoms: _102  and  _103
REMARK   43  A    between atoms: _102  and  _105
REMARK   44  A    between atoms: _105  and  _106
REMARK   45  A    between atoms: _111  and  _113
REMARK   46  A    between atoms: _113  and  _114
REMARK   47  A    between atoms: _113  and  _116
REMARK   48  A    between atoms: _119  and  _121
REMARK   49  A    between atoms: _121  and  _122
REMARK   50  A    between atoms: _124  and  _126
REMARK   51  A    between atoms: _126  and  _127
REMARK   52  A    between atoms: _130  and  _132
REMARK   53  A    between atoms: _132  and  _133
REMARK   54  A    between atoms: _132  and  _135
REMARK   55  A    between atoms: _135  and  _136
REMARK   56  A    between atoms: _136  and  _137
REMARK   57  A    between atoms: _139  and  _141
REMARK   58  A    between atoms: _141  and  _142
REMARK   59  A    between atoms: _141  and  _144
REMARK   60  A    between atoms: _144  and  _145
REMARK   61  A    between atoms: _145  and  _146
REMARK   62  A    between atoms: _149  and  _151
REMARK   63  A    between atoms: _151  and  _152
REMARK   64  A    between atoms: _151  and  _154
REMARK   65  A    between atoms: _154  and  _155
REMARK   66  A    between atoms: _160  and  _162
REMARK   67  A    between atoms: _162  and  _163
REMARK   68  A    between atoms: _162  and  _165
REMARK   69  A    between atoms: _165  and  _166
REMARK   70  A    between atoms: _169  and  _171
REMARK   71  A    between atoms: _171  and  _172
REMARK   72  A    between atoms: _171  and  _174
REMARK   73  A    between atoms: _174  and  _175
REMARK   74  A    between atoms: _181  and  _183
REMARK   75  A    between atoms: _183  and  _184
REMARK   76  A    between atoms: _183  and  _186
REMARK   77  A    between atoms: _186  and  _187
REMARK   78  A    between atoms: _192  and  _194
REMARK   79  A    between atoms: _194  and  _195
REMARK   80  A    between atoms: _194  and  _197
REMARK   81  A    between atoms: _197  and  _198
REMARK   82  A    between atoms: _203  and  _205
REMARK   83  A    between atoms: _205  and  _206
REMARK   84  A    between atoms: _205  and  _208
REMARK   85  A    between atoms: _208  and  _209
REMARK   86  A    between atoms: _211  and  _213
REMARK   87  A    between atoms: _213  and  _214
REMARK   88  A    between atoms: _213  and  _216
REMARK   89  A    between atoms: _216  and  _217
REMARK   90  A    between atoms: _217  and  _218
REMARK   91  A    between atoms: _218  and  _219
REMARK   92  A    between atoms: _228  and  _230
REMARK   93  A    between atoms: _230  and  _231
REMARK   94  A    between atoms: _230  and  _233
REMARK   95  A    between atoms: _233  and  _234
REMARK   96  A    between atoms: _237  and  _239
REMARK   97  A    between atoms: _239  and  _240
REMARK   98  A    between atoms: _239  and  _242
REMARK   99  A    between atoms: _245  and  _247
REMARK  100  A    between atoms: _247  and  _248
REMARK  101  A    between atoms: _247  and  _250
REMARK  102  A    between atoms: _253  and  _255
REMARK  103  A    between atoms: _255  and  _256
REMARK  104  A    between atoms: _258  and  _260
REMARK  105  A    between atoms: _260  and  _261
REMARK  106  A    between atoms: _260  and  _263
REMARK  107  A    between atoms: _263  and  _264
REMARK  108  A    between atoms: _268  and  ZN_679
REMARK  109  A    between atoms: _269  and  _271
REMARK  110  A    between atoms: _271  and  _272
REMARK  111  A    between atoms: _271  and  _274
REMARK  112  A    between atoms: _274  and  _275
REMARK  113  A    between atoms: _275  and  _276
REMARK  114  A    between atoms: _279  and  _281
REMARK  115  A    between atoms: _281  and  _282
REMARK  116  A    between atoms: _281  and  _284
REMARK  117  A    between atoms: _284  and  _285
REMARK  118  A    between atoms: _290  and  _291
REMARK  119  A    between atoms: _293  and  _295
REMARK  120  A    between atoms: _295  and  _296
REMARK  121  A    between atoms: _295  and  _298
REMARK  122  A    between atoms: _298  and  _299
REMARK  123  A    between atoms: _303  and  ZN_679
REMARK  124  A    between atoms: _304  and  _306
REMARK  125  A    between atoms: _306  and  _307
REMARK  126  A    between atoms: _306  and  _309
REMARK  127  A    between atoms: _309  and  _310
REMARK  128  A    between atoms: _320  and  _322
REMARK  129  A    between atoms: _322  and  _323
REMARK  130  A    between atoms: _322  and  _325
REMARK  131  A    between atoms: _325  and  _326
REMARK  132  A    between atoms: _329  and  _331
REMARK  133  A    between atoms: _331  and  _332
REMARK  134  A    between atoms: _331  and  _334
REMARK  135  A    between atoms: _334  and  _335
REMARK  136  A    between atoms: _335  and  _336
REMARK  137  A    between atoms: _336  and  _337
REMARK  138  A    between atoms: _337  and  _338
REMARK  139  A    between atoms: _342  and  _344
REMARK  140  A    between atoms: _344  and  _345
REMARK  141  A    between atoms: _344  and  _347
REMARK  142  A    between atoms: _347  and  _348
REMARK  143  A    between atoms: _348  and  _349
REMARK  144  A    between atoms: _349  and  _350
REMARK  145  A    between atoms: _350  and  ZN_679
REMARK  146  A    between atoms: _352  and  _354
REMARK  147  A    between atoms: _354  and  _355
REMARK  148  A    between atoms: _354  and  _357
REMARK  149  A    between atoms: _357  and  _358
REMARK  150  A    between atoms: _361  and  _363
REMARK  151  A    between atoms: _363  and  _364
REMARK  152  A    between atoms: _363  and  _366
REMARK  153  A    between atoms: _369  and  _371
REMARK  154  A    between atoms: _371  and  _372
REMARK  155  A    between atoms: _371  and  _374
REMARK  156  A    between atoms: _374  and  _375
REMARK  157  A    between atoms: _375  and  _376
REMARK  158  A    between atoms: _379  and  _381
REMARK  159  A    between atoms: _381  and  _382
REMARK  160  A    between atoms: _381  and  _384
REMARK  161  A    between atoms: _384  and  _385
REMARK  162  A    between atoms: _385  and  _386
REMARK  163  A    between atoms: _389  and  _391
REMARK  164  A    between atoms: _391  and  _392
REMARK  165  A    between atoms: _391  and  _394
REMARK  166  A    between atoms: _394  and  _395
REMARK  167  A    between atoms: _398  and  _400
REMARK  168  A    between atoms: _400  and  _401
REMARK  169  A    between atoms: _400  and  _403
REMARK  170  A    between atoms: _403  and  _404
REMARK  171  A    between atoms: _409  and  _411
REMARK  172  A    between atoms: _411  and  _412
REMARK  173  A    between atoms: _411  and  _414
REMARK  174  A    between atoms: _414  and  _415
REMARK  175  A    between atoms: _417  and  _419
REMARK  176  A    between atoms: _419  and  _420
REMARK  177  A    between atoms: _419  and  _422
REMARK  178  A    between atoms: _422  and  _423
REMARK  179  A    between atoms: _423  and  _424
REMARK  180  A    between atoms: _426  and  _428
REMARK  181  A    between atoms: _428  and  _429
REMARK  182  A    between atoms: _432  and  _434
REMARK  183  A    between atoms: _434  and  _435
REMARK  184  A    between atoms: _434  and  _437
REMARK  185  A    between atoms: _437  and  _438
REMARK  186  A    between atoms: _443  and  _445
REMARK  187  A    between atoms: _445  and  _446
REMARK  188  A    between atoms: _445  and  _448
REMARK  189  A    between atoms: _448  and  _449
REMARK  190  A    between atoms: _455  and  _457
REMARK  191  A    between atoms: _457  and  _458
REMARK  192  A    between atoms: _457  and  _460
REMARK  193  A    between atoms: _460  and  _461
REMARK  194  A    between atoms: _466  and  _467
REMARK  195  A    between atoms: _469  and  _471
REMARK  196  A    between atoms: _471  and  _472
REMARK  197  A    between atoms: _471  and  _474
REMARK  198  A    between atoms: _474  and  _475
REMARK  199  A    between atoms: _478  and  _480
REMARK  200  A    between atoms: _480  and  _481
REMARK  201  A    between atoms: _480  and  _483
REMARK  202  A    between atoms: _483  and  _484
REMARK  203  A    between atoms: _487  and  _489
REMARK  204  A    between atoms: _489  and  _490
REMARK  205  A    between atoms: _489  and  _492
REMARK  206  A    between atoms: _492  and  _493
REMARK  207  A    between atoms: _496  and  _498
REMARK  208  A    between atoms: _498  and  _499
REMARK  209  A    between atoms: _498  and  _501
REMARK  210  A    between atoms: _501  and  _502
REMARK  211  A    between atoms: _507  and  _508
REMARK  212  A    between atoms: _510  and  _512
REMARK  213  A    between atoms: _512  and  _513
REMARK  214  A    between atoms: _512  and  _515
REMARK  215  A    between atoms: _515  and  _516
REMARK  216  A    between atoms: _519  and  _521
REMARK  217  A    between atoms: _521  and  _522
REMARK  218  A    between atoms: _521  and  _524
REMARK  219  A    between atoms: _524  and  _525
REMARK  220  A    between atoms: _525  and  _526
REMARK  221  A    between atoms: _526  and  _527
REMARK  222  A    between atoms: _536  and  _538
REMARK  223  A    between atoms: _538  and  _539
REMARK  224  A    between atoms: _538  and  _541
REMARK  225  A    between atoms: _541  and  _542
REMARK  226  A    between atoms: _548  and  _549
REMARK  227  A    between atoms: _554  and  _556
REMARK  228  A    between atoms: _556  and  _557
REMARK  229  A    between atoms: _556  and  _559
REMARK  230  A    between atoms: _559  and  _560
REMARK  231  A    between atoms: _560  and  _561
REMARK  232  A    between atoms: _563  and  _565
REMARK  233  A    between atoms: _565  and  _566
REMARK  234  A    between atoms: _565  and  _568
REMARK  235  A    between atoms: _571  and  _573
REMARK  236  A    between atoms: _573  and  _574
REMARK  237  A    between atoms: _577  and  _579
REMARK  238  A    between atoms: _579  and  _580
REMARK  239  A    between atoms: _579  and  _582
REMARK  240  A    between atoms: _582  and  _583
REMARK  241  A    between atoms: _586  and  _588
REMARK  242  A    between atoms: _588  and  _589
REMARK  243  A    between atoms: _588  and  _591
REMARK  244  A    between atoms: _591  and  _592
REMARK  245  A    between atoms: _592  and  _593
REMARK  246  A    between atoms: _598  and  _600
REMARK  247  A    between atoms: _600  and  _601
REMARK  248  A    between atoms: _600  and  _603
REMARK  249  A    between atoms: _603  and  _604
REMARK  250  A    between atoms: _607  and  _609
REMARK  251  A    between atoms: _609  and  _610
REMARK  252  A    between atoms: _609  and  _612
REMARK  253  A    between atoms: _614  and  _616
REMARK  254  A    between atoms: _616  and  _617
REMARK  255  A    between atoms: _616  and  _619
REMARK  256  A    between atoms: _619  and  _620
REMARK  257  A    between atoms: _620  and  _621
REMARK  258  A    between atoms: _624  and  _626
REMARK  259  A    between atoms: _626  and  _627
REMARK  260  A    between atoms: _626  and  _629
REMARK  261  A    between atoms: _629  and  _630
REMARK  262  A    between atoms: _630  and  _631
REMARK  263  A    between atoms: _631  and  _632
REMARK  264  A    between atoms: _632  and  _633
REMARK  265  A    between atoms: _637  and  _639
REMARK  266  A    between atoms: _639  and  _640
REMARK  267  A    between atoms: _639  and  _642
REMARK  268  A    between atoms: _642  and  _643
REMARK  269  A    between atoms: _648  and  _650
REMARK  270  A    between atoms: _650  and  _651
REMARK  271  A    between atoms: _650  and  _653
REMARK  272  A    between atoms: _653  and  _654
REMARK  273  A    between atoms: _659  and  _660
REMARK  274  A    between atoms: _662  and  _664
REMARK  275  A    between atoms: _664  and  _665
REMARK  276  A    between atoms: _664  and  _667
REMARK  277  A    between atoms: _667  and  _668
REMARK  278  A    between atoms: _668  and  _669
REMARK  279  A    between atoms: _669  and  _670
REMARK                            x       y       z     vdW  Elec       q    Type
REMARK                         _______ _______ _______ _____ _____    ______ ____
ROOT
ATOM      1  O   HOH     1      14.990  20.060  15.921  0.00  0.00    +0.000 OA
ENDROOT
TORSDOF 0
REMARK  Name = ../refined-set-2016/3t8v/3t8v_pocket.pdb
REMARK  279 active torsions:
REMARK  status: ('A' for Active; 'I' for Inactive)
REMARK    1  A    between atoms: _1  and  _3
REMARK    2  A    between atoms: _3  and  _4
REMARK    3  A    between atoms: _7  and  _9
REMARK    4  A    between atoms: _9  and  _10
REMARK    5  A    between atoms: _9  and  _12
REMARK    6  A    between atoms: _12  and  _13
REMARK    7  A    between atoms: _16  and  _18
REMARK    8  A    between atoms: _18  and  _19
REMARK    9  A    between atoms: _18  and  _21
REMARK   10  A    between atoms: _21  and  _22
REMARK   11  A    between atoms: _25  and  _27
REMARK   12  A    between atoms: _27  and  _28
REMARK   13  A    between atoms: _27  and  _30
REMARK   14  A    between atoms: _30  and  _31
REMARK   15  A    between atoms: _31  and  _32
REMARK   16  A    between atoms: _37  and  _39
REMARK   17  A    between atoms: _39  and  _40
REMARK   18  A    between atoms: _39  and  _42
REMARK   19  A    between atoms: _44  and  _46
REMARK   20  A    between atoms: _46  and  _47
REMARK   21  A    between atoms: _46  and  _49
REMARK   22  A    between atoms: _49  and  _50
REMARK   23  A    between atoms: _50  and  _51
REMARK   24  A    between atoms: _54  and  _56
REMARK   25  A    between atoms: _56  and  _57
REMARK   26  A    between atoms: _60  and  _62
REMARK   27  A    between atoms: _62  and  _63
REMARK   28  A    between atoms: _62  and  _65
REMARK   29  A    between atoms: _65  and  _66
REMARK   30  A    between atoms: _69  and  _71
REMARK   31  A    between atoms: _71  and  _72
REMARK   32  A    between atoms: _74  and  _76
REMARK   33  A    between atoms: _76  and  _77
REMARK   34  A    between atoms: _76  and  _79
REMARK   35  A    between atoms: _79  and  _80
REMARK   36  A    between atoms: _85  and  _86
REMARK   37  A    between atoms: _88  and  _90
REMARK   38  A    between atoms: _90  and  _91
REMARK   39  A    between atoms: _90  and  _93
REMARK   40  A    between atoms: _93  and  _94
REMARK   41  A    between atoms: _100  and  _102
REMARK   42  A    between atoms: _102  and  _103
REMARK   43  A    between atoms: _102  and  _105
REMARK   44  A    between atoms: _105  and  _106
REMARK   45  A    between atoms: _111  and  _113
REMARK   46  A    between atoms: _113  and  _114
REMARK   47  A    between atoms: _113  and  _116
REMARK   48  A    between atoms: _119  and  _121
REMARK   49  A    between atoms: _121  and  _122
REMARK   50  A    between atoms: _124  and  _126
REMARK   51  A    between atoms: _126  and  _127
REMARK   52  A    between atoms: _130  and  _132
REMARK   53  A    between atoms: _132  and  _133
REMARK   54  A    between atoms: _132  and  _135
REMARK   55  A    between atoms: _135  and  _136
REMARK   56  A    between atoms: _136  and  _137
REMARK   57  A    between atoms: _139  and  _141
REMARK   58  A    between atoms: _141  and  _142
REMARK   59  A    between atoms: _141  and  _144
REMARK   60  A    between atoms: _144  and  _145
REMARK   61  A    between atoms: _145  and  _146
REMARK   62  A    between atoms: _149  and  _151
REMARK   63  A    between atoms: _151  and  _152
REMARK   64  A    between atoms: _151  and  _154
REMARK   65  A    between atoms: _154  and  _155
REMARK   66  A    between atoms: _160  and  _162
REMARK   67  A    between atoms: _162  and  _163
REMARK   68  A    between atoms: _162  and  _165
REMARK   69  A    between atoms: _165  and  _166
REMARK   70  A    between atoms: _169  and  _171
REMARK   71  A    between atoms: _171  and  _172
REMARK   72  A    between atoms: _171  and  _174
REMARK   73  A    between atoms: _174  and  _175
REMARK   74  A    between atoms: _181  and  _183
REMARK   75  A    between atoms: _183  and  _184
REMARK   76  A    between atoms: _183  and  _186
REMARK   77  A    between atoms: _186  and  _187
REMARK   78  A    between atoms: _192  and  _194
REMARK   79  A    between atoms: _194  and  _195
REMARK   80  A    between atoms: _194  and  _197
REMARK   81  A    between atoms: _197  and  _198
REMARK   82  A    between atoms: _203  and  _205
REMARK   83  A    between atoms: _205  and  _206
REMARK   84  A    between atoms: _205  and  _208
REMARK   85  A    between atoms: _208  and  _209
REMARK   86  A    between atoms: _211  and  _213
REMARK   87  A    between atoms: _213  and  _214
REMARK   88  A    between atoms: _213  and  _216
REMARK   89  A    between atoms: _216  and  _217
REMARK   90  A    between atoms: _217  and  _218
REMARK   91  A    between atoms: _218  and  _219
REMARK   92  A    between atoms: _228  and  _230
REMARK   93  A    between atoms: _230  and  _231
REMARK   94  A    between atoms: _230  and  _233
REMARK   95  A    between atoms: _233  and  _234
REMARK   96  A    between atoms: _237  and  _239
REMARK   97  A    between atoms: _239  and  _240
REMARK   98  A    between atoms: _239  and  _242
REMARK   99  A    between atoms: _245  and  _247
REMARK  100  A    between atoms: _247  and  _248
REMARK  101  A    between atoms: _247  and  _250
REMARK  102  A    between atoms: _253  and  _255
REMARK  103  A    between atoms: _255  and  _256
REMARK  104  A    between atoms: _258  and  _260
REMARK  105  A    between atoms: _260  and  _261
REMARK  106  A    between atoms: _260  and  _263
REMARK  107  A    between atoms: _263  and  _264
REMARK  108  A    between atoms: _268  and  ZN_679
REMARK  109  A    between atoms: _269  and  _271
REMARK  110  A    between atoms: _271  and  _272
REMARK  111  A    between atoms: _271  and  _274
REMARK  112  A    between atoms: _274  and  _275
REMARK  113  A    between atoms: _275  and  _276
REMARK  114  A    between atoms: _279  and  _281
REMARK  115  A    between atoms: _281  and  _282
REMARK  116  A    between atoms: _281  and  _284
REMARK  117  A    between atoms: _284  and  _285
REMARK  118  A    between atoms: _290  and  _291
REMARK  119  A    between atoms: _293  and  _295
REMARK  120  A    between atoms: _295  and  _296
REMARK  121  A    between atoms: _295  and  _298
REMARK  122  A    between atoms: _298  and  _299
REMARK  123  A    between atoms: _303  and  ZN_679
REMARK  124  A    between atoms: _304  and  _306
REMARK  125  A    between atoms: _306  and  _307
REMARK  126  A    between atoms: _306  and  _309
REMARK  127  A    between atoms: _309  and  _310
REMARK  128  A    between atoms: _320  and  _322
REMARK  129  A    between atoms: _322  and  _323
REMARK  130  A    between atoms: _322  and  _325
REMARK  131  A    between atoms: _325  and  _326
REMARK  132  A    between atoms: _329  and  _331
REMARK  133  A    between atoms: _331  and  _332
REMARK  134  A    between atoms: _331  and  _334
REMARK  135  A    between atoms: _334  and  _335
REMARK  136  A    between atoms: _335  and  _336
REMARK  137  A    between atoms: _336  and  _337
REMARK  138  A    between atoms: _337  and  _338
REMARK  139  A    between atoms: _342  and  _344
REMARK  140  A    between atoms: _344  and  _345
REMARK  141  A    between atoms: _344  and  _347
REMARK  142  A    between atoms: _347  and  _348
REMARK  143  A    between atoms: _348  and  _349
REMARK  144  A    between atoms: _349  and  _350
REMARK  145  A    between atoms: _350  and  ZN_679
REMARK  146  A    between atoms: _352  and  _354
REMARK  147  A    between atoms: _354  and  _355
REMARK  148  A    between atoms: _354  and  _357
REMARK  149  A    between atoms: _357  and  _358
REMARK  150  A    between atoms: _361  and  _363
REMARK  151  A    between atoms: _363  and  _364
REMARK  152  A    between atoms: _363  and  _366
REMARK  153  A    between atoms: _369  and  _371
REMARK  154  A    between atoms: _371  and  _372
REMARK  155  A    between atoms: _371  and  _374
REMARK  156  A    between atoms: _374  and  _375
REMARK  157  A    between atoms: _375  and  _376
REMARK  158  A    between atoms: _379  and  _381
REMARK  159  A    between atoms: _381  and  _382
REMARK  160  A    between atoms: _381  and  _384
REMARK  161  A    between atoms: _384  and  _385
REMARK  162  A    between atoms: _385  and  _386
REMARK  163  A    between atoms: _389  and  _391
REMARK  164  A    between atoms: _391  and  _392
REMARK  165  A    between atoms: _391  and  _394
REMARK  166  A    between atoms: _394  and  _395
REMARK  167  A    between atoms: _398  and  _400
REMARK  168  A    between atoms: _400  and  _401
REMARK  169  A    between atoms: _400  and  _403
REMARK  170  A    between atoms: _403  and  _404
REMARK  171  A    between atoms: _409  and  _411
REMARK  172  A    between atoms: _411  and  _412
REMARK  173  A    between atoms: _411  and  _414
REMARK  174  A    between atoms: _414  and  _415
REMARK  175  A    between atoms: _417  and  _419
REMARK  176  A    between atoms: _419  and  _420
REMARK  177  A    between atoms: _419  and  _422
REMARK  178  A    between atoms: _422  and  _423
REMARK  179  A    between atoms: _423  and  _424
REMARK  180  A    between atoms: _426  and  _428
REMARK  181  A    between atoms: _428  and  _429
REMARK  182  A    between atoms: _432  and  _434
REMARK  183  A    between atoms: _434  and  _435
REMARK  184  A    between atoms: _434  and  _437
REMARK  185  A    between atoms: _437  and  _438
REMARK  186  A    between atoms: _443  and  _445
REMARK  187  A    between atoms: _445  and  _446
REMARK  188  A    between atoms: _445  and  _448
REMARK  189  A    between atoms: _448  and  _449
REMARK  190  A    between atoms: _455  and  _457
REMARK  191  A    between atoms: _457  and  _458
REMARK  192  A    between atoms: _457  and  _460
REMARK  193  A    between atoms: _460  and  _461
REMARK  194  A    between atoms: _466  and  _467
REMARK  195  A    between atoms: _469  and  _471
REMARK  196  A    between atoms: _471  and  _472
REMARK  197  A    between atoms: _471  and  _474
REMARK  198  A    between atoms: _474  and  _475
REMARK  199  A    between atoms: _478  and  _480
REMARK  200  A    between atoms: _480  and  _481
REMARK  201  A    between atoms: _480  and  _483
REMARK  202  A    between atoms: _483  and  _484
REMARK  203  A    between atoms: _487  and  _489
REMARK  204  A    between atoms: _489  and  _490
REMARK  205  A    between atoms: _489  and  _492
REMARK  206  A    between atoms: _492  and  _493
REMARK  207  A    between atoms: _496  and  _498
REMARK  208  A    between atoms: _498  and  _499
REMARK  209  A    between atoms: _498  and  _501
REMARK  210  A    between atoms: _501  and  _502
REMARK  211  A    between atoms: _507  and  _508
REMARK  212  A    between atoms: _510  and  _512
REMARK  213  A    between atoms: _512  and  _513
REMARK  214  A    between atoms: _512  and  _515
REMARK  215  A    between atoms: _515  and  _516
REMARK  216  A    between atoms: _519  and  _521
REMARK  217  A    between atoms: _521  and  _522
REMARK  218  A    between atoms: _521  and  _524
REMARK  219  A    between atoms: _524  and  _525
REMARK  220  A    between atoms: _525  and  _526
REMARK  221  A    between atoms: _526  and  _527
REMARK  222  A    between atoms: _536  and  _538
REMARK  223  A    between atoms: _538  and  _539
REMARK  224  A    between atoms: _538  and  _541
REMARK  225  A    between atoms: _541  and  _542
REMARK  226  A    between atoms: _548  and  _549
REMARK  227  A    between atoms: _554  and  _556
REMARK  228  A    between atoms: _556  and  _557
REMARK  229  A    between atoms: _556  and  _559
REMARK  230  A    between atoms: _559  and  _560
REMARK  231  A    between atoms: _560  and  _561
REMARK  232  A    between atoms: _563  and  _565
REMARK  233  A    between atoms: _565  and  _566
REMARK  234  A    between atoms: _565  and  _568
REMARK  235  A    between atoms: _571  and  _573
REMARK  236  A    between atoms: _573  and  _574
REMARK  237  A    between atoms: _577  and  _579
REMARK  238  A    between atoms: _579  and  _580
REMARK  239  A    between atoms: _579  and  _582
REMARK  240  A    between atoms: _582  and  _583
REMARK  241  A    between atoms: _586  and  _588
REMARK  242  A    between atoms: _588  and  _589
REMARK  243  A    between atoms: _588  and  _591
REMARK  244  A    between atoms: _591  and  _592
REMARK  245  A    between atoms: _592  and  _593
REMARK  246  A    between atoms: _598  and  _600
REMARK  247  A    between atoms: _600  and  _601
REMARK  248  A    between atoms: _600  and  _603
REMARK  249  A    between atoms: _603  and  _604
REMARK  250  A    between atoms: _607  and  _609
REMARK  251  A    between atoms: _609  and  _610
REMARK  252  A    between atoms: _609  and  _612
REMARK  253  A    between atoms: _614  and  _616
REMARK  254  A    between atoms: _616  and  _617
REMARK  255  A    between atoms: _616  and  _619
REMARK  256  A    between atoms: _619  and  _620
REMARK  257  A    between atoms: _620  and  _621
REMARK  258  A    between atoms: _624  and  _626
REMARK  259  A    between atoms: _626  and  _627
REMARK  260  A    between atoms: _626  and  _629
REMARK  261  A    between atoms: _629  and  _630
REMARK  262  A    between atoms: _630  and  _631
REMARK  263  A    between atoms: _631  and  _632
REMARK  264  A    between atoms: _632  and  _633
REMARK  265  A    between atoms: _637  and  _639
REMARK  266  A    between atoms: _639  and  _640
REMARK  267  A    between atoms: _639  and  _642
REMARK  268  A    between atoms: _642  and  _643
REMARK  269  A    between atoms: _648  and  _650
REMARK  270  A    between atoms: _650  and  _651
REMARK  271  A    between atoms: _650  and  _653
REMARK  272  A    between atoms: _653  and  _654
REMARK  273  A    between atoms: _659  and  _660
REMARK  274  A    between atoms: _662  and  _664
REMARK  275  A    between atoms: _664  and  _665
REMARK  276  A    between atoms: _664  and  _667
REMARK  277  A    between atoms: _667  and  _668
REMARK  278  A    between atoms: _668  and  _669
REMARK  279  A    between atoms: _669  and  _670
REMARK                            x       y       z     vdW  Elec       q    Type
REMARK                         _______ _______ _______ _____ _____    ______ ____
ROOT
ATOM      1  O   HOH     1      17.481  -0.301  21.657  0.00  0.00    +0.000 OA
ENDROOT
TORSDOF 0
REMARK  Name = ../refined-set-2016/3t8v/3t8v_pocket.pdb
REMARK  279 active torsions:
REMARK  status: ('A' for Active; 'I' for Inactive)
REMARK    1  A    between atoms: _1  and  _3
REMARK    2  A    between atoms: _3  and  _4
REMARK    3  A    between atoms: _7  and  _9
REMARK    4  A    between atoms: _9  and  _10
REMARK    5  A    between atoms: _9  and  _12
REMARK    6  A    between atoms: _12  and  _13
REMARK    7  A    between atoms: _16  and  _18
REMARK    8  A    between atoms: _18  and  _19
REMARK    9  A    between atoms: _18  and  _21
REMARK   10  A    between atoms: _21  and  _22
REMARK   11  A    between atoms: _25  and  _27
REMARK   12  A    between atoms: _27  and  _28
REMARK   13  A    between atoms: _27  and  _30
REMARK   14  A    between atoms: _30  and  _31
REMARK   15  A    between atoms: _31  and  _32
REMARK   16  A    between atoms: _37  and  _39
REMARK   17  A    between atoms: _39  and  _40
REMARK   18  A    between atoms: _39  and  _42
REMARK   19  A    between atoms: _44  and  _46
REMARK   20  A    between atoms: _46  and  _47
REMARK   21  A    between atoms: _46  and  _49
REMARK   22  A    between atoms: _49  and  _50
REMARK   23  A    between atoms: _50  and  _51
REMARK   24  A    between atoms: _54  and  _56
REMARK   25  A    between atoms: _56  and  _57
REMARK   26  A    between atoms: _60  and  _62
REMARK   27  A    between atoms: _62  and  _63
REMARK   28  A    between atoms: _62  and  _65
REMARK   29  A    between atoms: _65  and  _66
REMARK   30  A    between atoms: _69  and  _71
REMARK   31  A    between atoms: _71  and  _72
REMARK   32  A    between atoms: _74  and  _76
REMARK   33  A    between atoms: _76  and  _77
REMARK   34  A    between atoms: _76  and  _79
REMARK   35  A    between atoms: _79  and  _80
REMARK   36  A    between atoms: _85  and  _86
REMARK   37  A    between atoms: _88  and  _90
REMARK   38  A    between atoms: _90  and  _91
REMARK   39  A    between atoms: _90  and  _93
REMARK   40  A    between atoms: _93  and  _94
REMARK   41  A    between atoms: _100  and  _102
REMARK   42  A    between atoms: _102  and  _103
REMARK   43  A    between atoms: _102  and  _105
REMARK   44  A    between atoms: _105  and  _106
REMARK   45  A    between atoms: _111  and  _113
REMARK   46  A    between atoms: _113  and  _114
REMARK   47  A    between atoms: _113  and  _116
REMARK   48  A    between atoms: _119  and  _121
REMARK   49  A    between atoms: _121  and  _122
REMARK   50  A    between atoms: _124  and  _126
REMARK   51  A    between atoms: _126  and  _127
REMARK   52  A    between atoms: _130  and  _132
REMARK   53  A    between atoms: _132  and  _133
REMARK   54  A    between atoms: _132  and  _135
REMARK   55  A    between atoms: _135  and  _136
REMARK   56  A    between atoms: _136  and  _137
REMARK   57  A    between atoms: _139  and  _141
REMARK   58  A    between atoms: _141  and  _142
REMARK   59  A    between atoms: _141  and  _144
REMARK   60  A    between atoms: _144  and  _145
REMARK   61  A    between atoms: _145  and  _146
REMARK   62  A    between atoms: _149  and  _151
REMARK   63  A    between atoms: _151  and  _152
REMARK   64  A    between atoms: _151  and  _154
REMARK   65  A    between atoms: _154  and  _155
REMARK   66  A    between atoms: _160  and  _162
REMARK   67  A    between atoms: _162  and  _163
REMARK   68  A    between atoms: _162  and  _165
REMARK   69  A    between atoms: _165  and  _166
REMARK   70  A    between atoms: _169  and  _171
REMARK   71  A    between atoms: _171  and  _172
REMARK   72  A    between atoms: _171  and  _174
REMARK   73  A    between atoms: _174  and  _175
REMARK   74  A    between atoms: _181  and  _183
REMARK   75  A    between atoms: _183  and  _184
REMARK   76  A    between atoms: _183  and  _186
REMARK   77  A    between atoms: _186  and  _187
REMARK   78  A    between atoms: _192  and  _194
REMARK   79  A    between atoms: _194  and  _195
REMARK   80  A    between atoms: _194  and  _197
REMARK   81  A    between atoms: _197  and  _198
REMARK   82  A    between atoms: _203  and  _205
REMARK   83  A    between atoms: _205  and  _206
REMARK   84  A    between atoms: _205  and  _208
REMARK   85  A    between atoms: _208  and  _209
REMARK   86  A    between atoms: _211  and  _213
REMARK   87  A    between atoms: _213  and  _214
REMARK   88  A    between atoms: _213  and  _216
REMARK   89  A    between atoms: _216  and  _217
REMARK   90  A    between atoms: _217  and  _218
REMARK   91  A    between atoms: _218  and  _219
REMARK   92  A    between atoms: _228  and  _230
REMARK   93  A    between atoms: _230  and  _231
REMARK   94  A    between atoms: _230  and  _233
REMARK   95  A    between atoms: _233  and  _234
REMARK   96  A    between atoms: _237  and  _239
REMARK   97  A    between atoms: _239  and  _240
REMARK   98  A    between atoms: _239  and  _242
REMARK   99  A    between atoms: _245  and  _247
REMARK  100  A    between atoms: _247  and  _248
REMARK  101  A    between atoms: _247  and  _250
REMARK  102  A    between atoms: _253  and  _255
REMARK  103  A    between atoms: _255  and  _256
REMARK  104  A    between atoms: _258  and  _260
REMARK  105  A    between atoms: _260  and  _261
REMARK  106  A    between atoms: _260  and  _263
REMARK  107  A    between atoms: _263  and  _264
REMARK  108  A    between atoms: _268  and  ZN_679
REMARK  109  A    between atoms: _269  and  _271
REMARK  110  A    between atoms: _271  and  _272
REMARK  111  A    between atoms: _271  and  _274
REMARK  112  A    between atoms: _274  and  _275
REMARK  113  A    between atoms: _275  and  _276
REMARK  114  A    between atoms: _279  and  _281
REMARK  115  A    between atoms: _281  and  _282
REMARK  116  A    between atoms: _281  and  _284
REMARK  117  A    between atoms: _284  and  _285
REMARK  118  A    between atoms: _290  and  _291
REMARK  119  A    between atoms: _293  and  _295
REMARK  120  A    between atoms: _295  and  _296
REMARK  121  A    between atoms: _295  and  _298
REMARK  122  A    between atoms: _298  and  _299
REMARK  123  A    between atoms: _303  and  ZN_679
REMARK  124  A    between atoms: _304  and  _306
REMARK  125  A    between atoms: _306  and  _307
REMARK  126  A    between atoms: _306  and  _309
REMARK  127  A    between atoms: _309  and  _310
REMARK  128  A    between atoms: _320  and  _322
REMARK  129  A    between atoms: _322  and  _323
REMARK  130  A    between atoms: _322  and  _325
REMARK  131  A    between atoms: _325  and  _326
REMARK  132  A    between atoms: _329  and  _331
REMARK  133  A    between atoms: _331  and  _332
REMARK  134  A    between atoms: _331  and  _334
REMARK  135  A    between atoms: _334  and  _335
REMARK  136  A    between atoms: _335  and  _336
REMARK  137  A    between atoms: _336  and  _337
REMARK  138  A    between atoms: _337  and  _338
REMARK  139  A    between atoms: _342  and  _344
REMARK  140  A    between atoms: _344  and  _345
REMARK  141  A    between atoms: _344  and  _347
REMARK  142  A    between atoms: _347  and  _348
REMARK  143  A    between atoms: _348  and  _349
REMARK  144  A    between atoms: _349  and  _350
REMARK  145  A    between atoms: _350  and  ZN_679
REMARK  146  A    between atoms: _352  and  _354
REMARK  147  A    between atoms: _354  and  _355
REMARK  148  A    between atoms: _354  and  _357
REMARK  149  A    between atoms: _357  and  _358
REMARK  150  A    between atoms: _361  and  _363
REMARK  151  A    between atoms: _363  and  _364
REMARK  152  A    between atoms: _363  and  _366
REMARK  153  A    between atoms: _369  and  _371
REMARK  154  A    between atoms: _371  and  _372
REMARK  155  A    between atoms: _371  and  _374
REMARK  156  A    between atoms: _374  and  _375
REMARK  157  A    between atoms: _375  and  _376
REMARK  158  A    between atoms: _379  and  _381
REMARK  159  A    between atoms: _381  and  _382
REMARK  160  A    between atoms: _381  and  _384
REMARK  161  A    between atoms: _384  and  _385
REMARK  162  A    between atoms: _385  and  _386
REMARK  163  A    between atoms: _389  and  _391
REMARK  164  A    between atoms: _391  and  _392
REMARK  165  A    between atoms: _391  and  _394
REMARK  166  A    between atoms: _394  and  _395
REMARK  167  A    between atoms: _398  and  _400
REMARK  168  A    between atoms: _400  and  _401
REMARK  169  A    between atoms: _400  and  _403
REMARK  170  A    between atoms: _403  and  _404
REMARK  171  A    between atoms: _409  and  _411
REMARK  172  A    between atoms: _411  and  _412
REMARK  173  A    between atoms: _411  and  _414
REMARK  174  A    between atoms: _414  and  _415
REMARK  175  A    between atoms: _417  and  _419
REMARK  176  A    between atoms: _419  and  _420
REMARK  177  A    between atoms: _419  and  _422
REMARK  178  A    between atoms: _422  and  _423
REMARK  179  A    between atoms: _423  and  _424
REMARK  180  A    between atoms: _426  and  _428
REMARK  181  A    between atoms: _428  and  _429
REMARK  182  A    between atoms: _432  and  _434
REMARK  183  A    between atoms: _434  and  _435
REMARK  184  A    between atoms: _434  and  _437
REMARK  185  A    between atoms: _437  and  _438
REMARK  186  A    between atoms: _443  and  _445
REMARK  187  A    between atoms: _445  and  _446
REMARK  188  A    between atoms: _445  and  _448
REMARK  189  A    between atoms: _448  and  _449
REMARK  190  A    between atoms: _455  and  _457
REMARK  191  A    between atoms: _457  and  _458
REMARK  192  A    between atoms: _457  and  _460
REMARK  193  A    between atoms: _460  and  _461
REMARK  194  A    between atoms: _466  and  _467
REMARK  195  A    between atoms: _469  and  _471
REMARK  196  A    between atoms: _471  and  _472
REMARK  197  A    between atoms: _471  and  _474
REMARK  198  A    between atoms: _474  and  _475
REMARK  199  A    between atoms: _478  and  _480
REMARK  200  A    between atoms: _480  and  _481
REMARK  201  A    between atoms: _480  and  _483
REMARK  202  A    between atoms: _483  and  _484
REMARK  203  A    between atoms: _487  and  _489
REMARK  204  A    between atoms: _489  and  _490
REMARK  205  A    between atoms: _489  and  _492
REMARK  206  A    between atoms: _492  and  _493
REMARK  207  A    between atoms: _496  and  _498
REMARK  208  A    between atoms: _498  and  _499
REMARK  209  A    between atoms: _498  and  _501
REMARK  210  A    between atoms: _501  and  _502
REMARK  211  A    between atoms: _507  and  _508
REMARK  212  A    between atoms: _510  and  _512
REMARK  213  A    between atoms: _512  and  _513
REMARK  214  A    between atoms: _512  and  _515
REMARK  215  A    between atoms: _515  and  _516
REMARK  216  A    between atoms: _519  and  _521
REMARK  217  A    between atoms: _521  and  _522
REMARK  218  A    between atoms: _521  and  _524
REMARK  219  A    between atoms: _524  and  _525
REMARK  220  A    between atoms: _525  and  _526
REMARK  221  A    between atoms: _526  and  _527
REMARK  222  A    between atoms: _536  and  _538
REMARK  223  A    between atoms: _538  and  _539
REMARK  224  A    between atoms: _538  and  _541
REMARK  225  A    between atoms: _541  and  _542
REMARK  226  A    between atoms: _548  and  _549
REMARK  227  A    between atoms: _554  and  _556
REMARK  228  A    between atoms: _556  and  _557
REMARK  229  A    between atoms: _556  and  _559
REMARK  230  A    between atoms: _559  and  _560
REMARK  231  A    between atoms: _560  and  _561
REMARK  232  A    between atoms: _563  and  _565
REMARK  233  A    between atoms: _565  and  _566
REMARK  234  A    between atoms: _565  and  _568
REMARK  235  A    between atoms: _571  and  _573
REMARK  236  A    between atoms: _573  and  _574
REMARK  237  A    between atoms: _577  and  _579
REMARK  238  A    between atoms: _579  and  _580
REMARK  239  A    between atoms: _579  and  _582
REMARK  240  A    between atoms: _582  and  _583
REMARK  241  A    between atoms: _586  and  _588
REMARK  242  A    between atoms: _588  and  _589
REMARK  243  A    between atoms: _588  and  _591
REMARK  244  A    between atoms: _591  and  _592
REMARK  245  A    between atoms: _592  and  _593
REMARK  246  A    between atoms: _598  and  _600
REMARK  247  A    between atoms: _600  and  _601
REMARK  248  A    between atoms: _600  and  _603
REMARK  249  A    between atoms: _603  and  _604
REMARK  250  A    between atoms: _607  and  _609
REMARK  251  A    between atoms: _609  and  _610
REMARK  252  A    between atoms: _609  and  _612
REMARK  253  A    between atoms: _614  and  _616
REMARK  254  A    between atoms: _616  and  _617
REMARK  255  A    between atoms: _616  and  _619
REMARK  256  A    between atoms: _619  and  _620
REMARK  257  A    between atoms: _620  and  _621
REMARK  258  A    between atoms: _624  and  _626
REMARK  259  A    between atoms: _626  and  _627
REMARK  260  A    between atoms: _626  and  _629
REMARK  261  A    between atoms: _629  and  _630
REMARK  262  A    between atoms: _630  and  _631
REMARK  263  A    between atoms: _631  and  _632
REMARK  264  A    between atoms: _632  and  _633
REMARK  265  A    between atoms: _637  and  _639
REMARK  266  A    between atoms: _639  and  _640
REMARK  267  A    between atoms: _639  and  _642
REMARK  268  A    between atoms: _642  and  _643
REMARK  269  A    between atoms: _648  and  _650
REMARK  270  A    between atoms: _650  and  _651
REMARK  271  A    between atoms: _650  and  _653
REMARK  272  A    between atoms: _653  and  _654
REMARK  273  A    between atoms: _659  and  _660
REMARK  274  A    between atoms: _662  and  _664
REMARK  275  A    between atoms: _664  and  _665
REMARK  276  A    between atoms: _664  and  _667
REMARK  277  A    between atoms: _667  and  _668
REMARK  278  A    between atoms: _668  and  _669
REMARK  279  A    between atoms: _669  and  _670
REMARK                            x       y       z     vdW  Elec       q    Type
REMARK                         _______ _______ _______ _____ _____    ______ ____
ROOT
ATOM      1  O   HOH     1      16.705   6.869   7.206  0.00  0.00    +0.000 OA
ENDROOT
TORSDOF 0
REMARK  Name = ../refined-set-2016/3t8v/3t8v_pocket.pdb
REMARK  279 active torsions:
REMARK  status: ('A' for Active; 'I' for Inactive)
REMARK    1  A    between atoms: _1  and  _3
REMARK    2  A    between atoms: _3  and  _4
REMARK    3  A    between atoms: _7  and  _9
REMARK    4  A    between atoms: _9  and  _10
REMARK    5  A    between atoms: _9  and  _12
REMARK    6  A    between atoms: _12  and  _13
REMARK    7  A    between atoms: _16  and  _18
REMARK    8  A    between atoms: _18  and  _19
REMARK    9  A    between atoms: _18  and  _21
REMARK   10  A    between atoms: _21  and  _22
REMARK   11  A    between atoms: _25  and  _27
REMARK   12  A    between atoms: _27  and  _28
REMARK   13  A    between atoms: _27  and  _30
REMARK   14  A    between atoms: _30  and  _31
REMARK   15  A    between atoms: _31  and  _32
REMARK   16  A    between atoms: _37  and  _39
REMARK   17  A    between atoms: _39  and  _40
REMARK   18  A    between atoms: _39  and  _42
REMARK   19  A    between atoms: _44  and  _46
REMARK   20  A    between atoms: _46  and  _47
REMARK   21  A    between atoms: _46  and  _49
REMARK   22  A    between atoms: _49  and  _50
REMARK   23  A    between atoms: _50  and  _51
REMARK   24  A    between atoms: _54  and  _56
REMARK   25  A    between atoms: _56  and  _57
REMARK   26  A    between atoms: _60  and  _62
REMARK   27  A    between atoms: _62  and  _63
REMARK   28  A    between atoms: _62  and  _65
REMARK   29  A    between atoms: _65  and  _66
REMARK   30  A    between atoms: _69  and  _71
REMARK   31  A    between atoms: _71  and  _72
REMARK   32  A    between atoms: _74  and  _76
REMARK   33  A    between atoms: _76  and  _77
REMARK   34  A    between atoms: _76  and  _79
REMARK   35  A    between atoms: _79  and  _80
REMARK   36  A    between atoms: _85  and  _86
REMARK   37  A    between atoms: _88  and  _90
REMARK   38  A    between atoms: _90  and  _91
REMARK   39  A    between atoms: _90  and  _93
REMARK   40  A    between atoms: _93  and  _94
REMARK   41  A    between atoms: _100  and  _102
REMARK   42  A    between atoms: _102  and  _103
REMARK   43  A    between atoms: _102  and  _105
REMARK   44  A    between atoms: _105  and  _106
REMARK   45  A    between atoms: _111  and  _113
REMARK   46  A    between atoms: _113  and  _114
REMARK   47  A    between atoms: _113  and  _116
REMARK   48  A    between atoms: _119  and  _121
REMARK   49  A    between atoms: _121  and  _122
REMARK   50  A    between atoms: _124  and  _126
REMARK   51  A    between atoms: _126  and  _127
REMARK   52  A    between atoms: _130  and  _132
REMARK   53  A    between atoms: _132  and  _133
REMARK   54  A    between atoms: _132  and  _135
REMARK   55  A    between atoms: _135  and  _136
REMARK   56  A    between atoms: _136  and  _137
REMARK   57  A    between atoms: _139  and  _141
REMARK   58  A    between atoms: _141  and  _142
REMARK   59  A    between atoms: _141  and  _144
REMARK   60  A    between atoms: _144  and  _145
REMARK   61  A    between atoms: _145  and  _146
REMARK   62  A    between atoms: _149  and  _151
REMARK   63  A    between atoms: _151  and  _152
REMARK   64  A    between atoms: _151  and  _154
REMARK   65  A    between atoms: _154  and  _155
REMARK   66  A    between atoms: _160  and  _162
REMARK   67  A    between atoms: _162  and  _163
REMARK   68  A    between atoms: _162  and  _165
REMARK   69  A    between atoms: _165  and  _166
REMARK   70  A    between atoms: _169  and  _171
REMARK   71  A    between atoms: _171  and  _172
REMARK   72  A    between atoms: _171  and  _174
REMARK   73  A    between atoms: _174  and  _175
REMARK   74  A    between atoms: _181  and  _183
REMARK   75  A    between atoms: _183  and  _184
REMARK   76  A    between atoms: _183  and  _186
REMARK   77  A    between atoms: _186  and  _187
REMARK   78  A    between atoms: _192  and  _194
REMARK   79  A    between atoms: _194  and  _195
REMARK   80  A    between atoms: _194  and  _197
REMARK   81  A    between atoms: _197  and  _198
REMARK   82  A    between atoms: _203  and  _205
REMARK   83  A    between atoms: _205  and  _206
REMARK   84  A    between atoms: _205  and  _208
REMARK   85  A    between atoms: _208  and  _209
REMARK   86  A    between atoms: _211  and  _213
REMARK   87  A    between atoms: _213  and  _214
REMARK   88  A    between atoms: _213  and  _216
REMARK   89  A    between atoms: _216  and  _217
REMARK   90  A    between atoms: _217  and  _218
REMARK   91  A    between atoms: _218  and  _219
REMARK   92  A    between atoms: _228  and  _230
REMARK   93  A    between atoms: _230  and  _231
REMARK   94  A    between atoms: _230  and  _233
REMARK   95  A    between atoms: _233  and  _234
REMARK   96  A    between atoms: _237  and  _239
REMARK   97  A    between atoms: _239  and  _240
REMARK   98  A    between atoms: _239  and  _242
REMARK   99  A    between atoms: _245  and  _247
REMARK  100  A    between atoms: _247  and  _248
REMARK  101  A    between atoms: _247  and  _250
REMARK  102  A    between atoms: _253  and  _255
REMARK  103  A    between atoms: _255  and  _256
REMARK  104  A    between atoms: _258  and  _260
REMARK  105  A    between atoms: _260  and  _261
REMARK  106  A    between atoms: _260  and  _263
REMARK  107  A    between atoms: _263  and  _264
REMARK  108  A    between atoms: _268  and  ZN_679
REMARK  109  A    between atoms: _269  and  _271
REMARK  110  A    between atoms: _271  and  _272
REMARK  111  A    between atoms: _271  and  _274
REMARK  112  A    between atoms: _274  and  _275
REMARK  113  A    between atoms: _275  and  _276
REMARK  114  A    between atoms: _279  and  _281
REMARK  115  A    between atoms: _281  and  _282
REMARK  116  A    between atoms: _281  and  _284
REMARK  117  A    between atoms: _284  and  _285
REMARK  118  A    between atoms: _290  and  _291
REMARK  119  A    between atoms: _293  and  _295
REMARK  120  A    between atoms: _295  and  _296
REMARK  121  A    between atoms: _295  and  _298
REMARK  122  A    between atoms: _298  and  _299
REMARK  123  A    between atoms: _303  and  ZN_679
REMARK  124  A    between atoms: _304  and  _306
REMARK  125  A    between atoms: _306  and  _307
REMARK  126  A    between atoms: _306  and  _309
REMARK  127  A    between atoms: _309  and  _310
REMARK  128  A    between atoms: _320  and  _322
REMARK  129  A    between atoms: _322  and  _323
REMARK  130  A    between atoms: _322  and  _325
REMARK  131  A    between atoms: _325  and  _326
REMARK  132  A    between atoms: _329  and  _331
REMARK  133  A    between atoms: _331  and  _332
REMARK  134  A    between atoms: _331  and  _334
REMARK  135  A    between atoms: _334  and  _335
REMARK  136  A    between atoms: _335  and  _336
REMARK  137  A    between atoms: _336  and  _337
REMARK  138  A    between atoms: _337  and  _338
REMARK  139  A    between atoms: _342  and  _344
REMARK  140  A    between atoms: _344  and  _345
REMARK  141  A    between atoms: _344  and  _347
REMARK  142  A    between atoms: _347  and  _348
REMARK  143  A    between atoms: _348  and  _349
REMARK  144  A    between atoms: _349  and  _350
REMARK  145  A    between atoms: _350  and  ZN_679
REMARK  146  A    between atoms: _352  and  _354
REMARK  147  A    between atoms: _354  and  _355
REMARK  148  A    between atoms: _354  and  _357
REMARK  149  A    between atoms: _357  and  _358
REMARK  150  A    between atoms: _361  and  _363
REMARK  151  A    between atoms: _363  and  _364
REMARK  152  A    between atoms: _363  and  _366
REMARK  153  A    between atoms: _369  and  _371
REMARK  154  A    between atoms: _371  and  _372
REMARK  155  A    between atoms: _371  and  _374
REMARK  156  A    between atoms: _374  and  _375
REMARK  157  A    between atoms: _375  and  _376
REMARK  158  A    between atoms: _379  and  _381
REMARK  159  A    between atoms: _381  and  _382
REMARK  160  A    between atoms: _381  and  _384
REMARK  161  A    between atoms: _384  and  _385
REMARK  162  A    between atoms: _385  and  _386
REMARK  163  A    between atoms: _389  and  _391
REMARK  164  A    between atoms: _391  and  _392
REMARK  165  A    between atoms: _391  and  _394
REMARK  166  A    between atoms: _394  and  _395
REMARK  167  A    between atoms: _398  and  _400
REMARK  168  A    between atoms: _400  and  _401
REMARK  169  A    between atoms: _400  and  _403
REMARK  170  A    between atoms: _403  and  _404
REMARK  171  A    between atoms: _409  and  _411
REMARK  172  A    between atoms: _411  and  _412
REMARK  173  A    between atoms: _411  and  _414
REMARK  174  A    between atoms: _414  and  _415
REMARK  175  A    between atoms: _417  and  _419
REMARK  176  A    between atoms: _419  and  _420
REMARK  177  A    between atoms: _419  and  _422
REMARK  178  A    between atoms: _422  and  _423
REMARK  179  A    between atoms: _423  and  _424
REMARK  180  A    between atoms: _426  and  _428
REMARK  181  A    between atoms: _428  and  _429
REMARK  182  A    between atoms: _432  and  _434
REMARK  183  A    between atoms: _434  and  _435
REMARK  184  A    between atoms: _434  and  _437
REMARK  185  A    between atoms: _437  and  _438
REMARK  186  A    between atoms: _443  and  _445
REMARK  187  A    between atoms: _445  and  _446
REMARK  188  A    between atoms: _445  and  _448
REMARK  189  A    between atoms: _448  and  _449
REMARK  190  A    between atoms: _455  and  _457
REMARK  191  A    between atoms: _457  and  _458
REMARK  192  A    between atoms: _457  and  _460
REMARK  193  A    between atoms: _460  and  _461
REMARK  194  A    between atoms: _466  and  _467
REMARK  195  A    between atoms: _469  and  _471
REMARK  196  A    between atoms: _471  and  _472
REMARK  197  A    between atoms: _471  and  _474
REMARK  198  A    between atoms: _474  and  _475
REMARK  199  A    between atoms: _478  and  _480
REMARK  200  A    between atoms: _480  and  _481
REMARK  201  A    between atoms: _480  and  _483
REMARK  202  A    between atoms: _483  and  _484
REMARK  203  A    between atoms: _487  and  _489
REMARK  204  A    between atoms: _489  and  _490
REMARK  205  A    between atoms: _489  and  _492
REMARK  206  A    between atoms: _492  and  _493
REMARK  207  A    between atoms: _496  and  _498
REMARK  208  A    between atoms: _498  and  _499
REMARK  209  A    between atoms: _498  and  _501
REMARK  210  A    between atoms: _501  and  _502
REMARK  211  A    between atoms: _507  and  _508
REMARK  212  A    between atoms: _510  and  _512
REMARK  213  A    between atoms: _512  and  _513
REMARK  214  A    between atoms: _512  and  _515
REMARK  215  A    between atoms: _515  and  _516
REMARK  216  A    between atoms: _519  and  _521
REMARK  217  A    between atoms: _521  and  _522
REMARK  218  A    between atoms: _521  and  _524
REMARK  219  A    between atoms: _524  and  _525
REMARK  220  A    between atoms: _525  and  _526
REMARK  221  A    between atoms: _526  and  _527
REMARK  222  A    between atoms: _536  and  _538
REMARK  223  A    between atoms: _538  and  _539
REMARK  224  A    between atoms: _538  and  _541
REMARK  225  A    between atoms: _541  and  _542
REMARK  226  A    between atoms: _548  and  _549
REMARK  227  A    between atoms: _554  and  _556
REMARK  228  A    between atoms: _556  and  _557
REMARK  229  A    between atoms: _556  and  _559
REMARK  230  A    between atoms: _559  and  _560
REMARK  231  A    between atoms: _560  and  _561
REMARK  232  A    between atoms: _563  and  _565
REMARK  233  A    between atoms: _565  and  _566
REMARK  234  A    between atoms: _565  and  _568
REMARK  235  A    between atoms: _571  and  _573
REMARK  236  A    between atoms: _573  and  _574
REMARK  237  A    between atoms: _577  and  _579
REMARK  238  A    between atoms: _579  and  _580
REMARK  239  A    between atoms: _579  and  _582
REMARK  240  A    between atoms: _582  and  _583
REMARK  241  A    between atoms: _586  and  _588
REMARK  242  A    between atoms: _588  and  _589
REMARK  243  A    between atoms: _588  and  _591
REMARK  244  A    between atoms: _591  and  _592
REMARK  245  A    between atoms: _592  and  _593
REMARK  246  A    between atoms: _598  and  _600
REMARK  247  A    between atoms: _600  and  _601
REMARK  248  A    between atoms: _600  and  _603
REMARK  249  A    between atoms: _603  and  _604
REMARK  250  A    between atoms: _607  and  _609
REMARK  251  A    between atoms: _609  and  _610
REMARK  252  A    between atoms: _609  and  _612
REMARK  253  A    between atoms: _614  and  _616
REMARK  254  A    between atoms: _616  and  _617
REMARK  255  A    between atoms: _616  and  _619
REMARK  256  A    between atoms: _619  and  _620
REMARK  257  A    between atoms: _620  and  _621
REMARK  258  A    between atoms: _624  and  _626
REMARK  259  A    between atoms: _626  and  _627
REMARK  260  A    between atoms: _626  and  _629
REMARK  261  A    between atoms: _629  and  _630
REMARK  262  A    between atoms: _630  and  _631
REMARK  263  A    between atoms: _631  and  _632
REMARK  264  A    between atoms: _632  and  _633
REMARK  265  A    between atoms: _637  and  _639
REMARK  266  A    between atoms: _639  and  _640
REMARK  267  A    between atoms: _639  and  _642
REMARK  268  A    between atoms: _642  and  _643
REMARK  269  A    between atoms: _648  and  _650
REMARK  270  A    between atoms: _650  and  _651
REMARK  271  A    between atoms: _650  and  _653
REMARK  272  A    between atoms: _653  and  _654
REMARK  273  A    between atoms: _659  and  _660
REMARK  274  A    between atoms: _662  and  _664
REMARK  275  A    between atoms: _664  and  _665
REMARK  276  A    between atoms: _664  and  _667
REMARK  277  A    between atoms: _667  and  _668
REMARK  278  A    between atoms: _668  and  _669
REMARK  279  A    between atoms: _669  and  _670
REMARK                            x       y       z     vdW  Elec       q    Type
REMARK                         _______ _______ _______ _____ _____    ______ ____
ROOT
ATOM      1  O   HOH     1      20.945   1.552  19.250  0.00  0.00    +0.000 OA
ENDROOT
TORSDOF 0
REMARK  Name = ../refined-set-2016/3t8v/3t8v_pocket.pdb
REMARK  279 active torsions:
REMARK  status: ('A' for Active; 'I' for Inactive)
REMARK    1  A    between atoms: _1  and  _3
REMARK    2  A    between atoms: _3  and  _4
REMARK    3  A    between atoms: _7  and  _9
REMARK    4  A    between atoms: _9  and  _10
REMARK    5  A    between atoms: _9  and  _12
REMARK    6  A    between atoms: _12  and  _13
REMARK    7  A    between atoms: _16  and  _18
REMARK    8  A    between atoms: _18  and  _19
REMARK    9  A    between atoms: _18  and  _21
REMARK   10  A    between atoms: _21  and  _22
REMARK   11  A    between atoms: _25  and  _27
REMARK   12  A    between atoms: _27  and  _28
REMARK   13  A    between atoms: _27  and  _30
REMARK   14  A    between atoms: _30  and  _31
REMARK   15  A    between atoms: _31  and  _32
REMARK   16  A    between atoms: _37  and  _39
REMARK   17  A    between atoms: _39  and  _40
REMARK   18  A    between atoms: _39  and  _42
REMARK   19  A    between atoms: _44  and  _46
REMARK   20  A    between atoms: _46  and  _47
REMARK   21  A    between atoms: _46  and  _49
REMARK   22  A    between atoms: _49  and  _50
REMARK   23  A    between atoms: _50  and  _51
REMARK   24  A    between atoms: _54  and  _56
REMARK   25  A    between atoms: _56  and  _57
REMARK   26  A    between atoms: _60  and  _62
REMARK   27  A    between atoms: _62  and  _63
REMARK   28  A    between atoms: _62  and  _65
REMARK   29  A    between atoms: _65  and  _66
REMARK   30  A    between atoms: _69  and  _71
REMARK   31  A    between atoms: _71  and  _72
REMARK   32  A    between atoms: _74  and  _76
REMARK   33  A    between atoms: _76  and  _77
REMARK   34  A    between atoms: _76  and  _79
REMARK   35  A    between atoms: _79  and  _80
REMARK   36  A    between atoms: _85  and  _86
REMARK   37  A    between atoms: _88  and  _90
REMARK   38  A    between atoms: _90  and  _91
REMARK   39  A    between atoms: _90  and  _93
REMARK   40  A    between atoms: _93  and  _94
REMARK   41  A    between atoms: _100  and  _102
REMARK   42  A    between atoms: _102  and  _103
REMARK   43  A    between atoms: _102  and  _105
REMARK   44  A    between atoms: _105  and  _106
REMARK   45  A    between atoms: _111  and  _113
REMARK   46  A    between atoms: _113  and  _114
REMARK   47  A    between atoms: _113  and  _116
REMARK   48  A    between atoms: _119  and  _121
REMARK   49  A    between atoms: _121  and  _122
REMARK   50  A    between atoms: _124  and  _126
REMARK   51  A    between atoms: _126  and  _127
REMARK   52  A    between atoms: _130  and  _132
REMARK   53  A    between atoms: _132  and  _133
REMARK   54  A    between atoms: _132  and  _135
REMARK   55  A    between atoms: _135  and  _136
REMARK   56  A    between atoms: _136  and  _137
REMARK   57  A    between atoms: _139  and  _141
REMARK   58  A    between atoms: _141  and  _142
REMARK   59  A    between atoms: _141  and  _144
REMARK   60  A    between atoms: _144  and  _145
REMARK   61  A    between atoms: _145  and  _146
REMARK   62  A    between atoms: _149  and  _151
REMARK   63  A    between atoms: _151  and  _152
REMARK   64  A    between atoms: _151  and  _154
REMARK   65  A    between atoms: _154  and  _155
REMARK   66  A    between atoms: _160  and  _162
REMARK   67  A    between atoms: _162  and  _163
REMARK   68  A    between atoms: _162  and  _165
REMARK   69  A    between atoms: _165  and  _166
REMARK   70  A    between atoms: _169  and  _171
REMARK   71  A    between atoms: _171  and  _172
REMARK   72  A    between atoms: _171  and  _174
REMARK   73  A    between atoms: _174  and  _175
REMARK   74  A    between atoms: _181  and  _183
REMARK   75  A    between atoms: _183  and  _184
REMARK   76  A    between atoms: _183  and  _186
REMARK   77  A    between atoms: _186  and  _187
REMARK   78  A    between atoms: _192  and  _194
REMARK   79  A    between atoms: _194  and  _195
REMARK   80  A    between atoms: _194  and  _197
REMARK   81  A    between atoms: _197  and  _198
REMARK   82  A    between atoms: _203  and  _205
REMARK   83  A    between atoms: _205  and  _206
REMARK   84  A    between atoms: _205  and  _208
REMARK   85  A    between atoms: _208  and  _209
REMARK   86  A    between atoms: _211  and  _213
REMARK   87  A    between atoms: _213  and  _214
REMARK   88  A    between atoms: _213  and  _216
REMARK   89  A    between atoms: _216  and  _217
REMARK   90  A    between atoms: _217  and  _218
REMARK   91  A    between atoms: _218  and  _219
REMARK   92  A    between atoms: _228  and  _230
REMARK   93  A    between atoms: _230  and  _231
REMARK   94  A    between atoms: _230  and  _233
REMARK   95  A    between atoms: _233  and  _234
REMARK   96  A    between atoms: _237  and  _239
REMARK   97  A    between atoms: _239  and  _240
REMARK   98  A    between atoms: _239  and  _242
REMARK   99  A    between atoms: _245  and  _247
REMARK  100  A    between atoms: _247  and  _248
REMARK  101  A    between atoms: _247  and  _250
REMARK  102  A    between atoms: _253  and  _255
REMARK  103  A    between atoms: _255  and  _256
REMARK  104  A    between atoms: _258  and  _260
REMARK  105  A    between atoms: _260  and  _261
REMARK  106  A    between atoms: _260  and  _263
REMARK  107  A    between atoms: _263  and  _264
REMARK  108  A    between atoms: _268  and  ZN_679
REMARK  109  A    between atoms: _269  and  _271
REMARK  110  A    between atoms: _271  and  _272
REMARK  111  A    between atoms: _271  and  _274
REMARK  112  A    between atoms: _274  and  _275
REMARK  113  A    between atoms: _275  and  _276
REMARK  114  A    between atoms: _279  and  _281
REMARK  115  A    between atoms: _281  and  _282
REMARK  116  A    between atoms: _281  and  _284
REMARK  117  A    between atoms: _284  and  _285
REMARK  118  A    between atoms: _290  and  _291
REMARK  119  A    between atoms: _293  and  _295
REMARK  120  A    between atoms: _295  and  _296
REMARK  121  A    between atoms: _295  and  _298
REMARK  122  A    between atoms: _298  and  _299
REMARK  123  A    between atoms: _303  and  ZN_679
REMARK  124  A    between atoms: _304  and  _306
REMARK  125  A    between atoms: _306  and  _307
REMARK  126  A    between atoms: _306  and  _309
REMARK  127  A    between atoms: _309  and  _310
REMARK  128  A    between atoms: _320  and  _322
REMARK  129  A    between atoms: _322  and  _323
REMARK  130  A    between atoms: _322  and  _325
REMARK  131  A    between atoms: _325  and  _326
REMARK  132  A    between atoms: _329  and  _331
REMARK  133  A    between atoms: _331  and  _332
REMARK  134  A    between atoms: _331  and  _334
REMARK  135  A    between atoms: _334  and  _335
REMARK  136  A    between atoms: _335  and  _336
REMARK  137  A    between atoms: _336  and  _337
REMARK  138  A    between atoms: _337  and  _338
REMARK  139  A    between atoms: _342  and  _344
REMARK  140  A    between atoms: _344  and  _345
REMARK  141  A    between atoms: _344  and  _347
REMARK  142  A    between atoms: _347  and  _348
REMARK  143  A    between atoms: _348  and  _349
REMARK  144  A    between atoms: _349  and  _350
REMARK  145  A    between atoms: _350  and  ZN_679
REMARK  146  A    between atoms: _352  and  _354
REMARK  147  A    between atoms: _354  and  _355
REMARK  148  A    between atoms: _354  and  _357
REMARK  149  A    between atoms: _357  and  _358
REMARK  150  A    between atoms: _361  and  _363
REMARK  151  A    between atoms: _363  and  _364
REMARK  152  A    between atoms: _363  and  _366
REMARK  153  A    between atoms: _369  and  _371
REMARK  154  A    between atoms: _371  and  _372
REMARK  155  A    between atoms: _371  and  _374
REMARK  156  A    between atoms: _374  and  _375
REMARK  157  A    between atoms: _375  and  _376
REMARK  158  A    between atoms: _379  and  _381
REMARK  159  A    between atoms: _381  and  _382
REMARK  160  A    between atoms: _381  and  _384
REMARK  161  A    between atoms: _384  and  _385
REMARK  162  A    between atoms: _385  and  _386
REMARK  163  A    between atoms: _389  and  _391
REMARK  164  A    between atoms: _391  and  _392
REMARK  165  A    between atoms: _391  and  _394
REMARK  166  A    between atoms: _394  and  _395
REMARK  167  A    between atoms: _398  and  _400
REMARK  168  A    between atoms: _400  and  _401
REMARK  169  A    between atoms: _400  and  _403
REMARK  170  A    between atoms: _403  and  _404
REMARK  171  A    between atoms: _409  and  _411
REMARK  172  A    between atoms: _411  and  _412
REMARK  173  A    between atoms: _411  and  _414
REMARK  174  A    between atoms: _414  and  _415
REMARK  175  A    between atoms: _417  and  _419
REMARK  176  A    between atoms: _419  and  _420
REMARK  177  A    between atoms: _419  and  _422
REMARK  178  A    between atoms: _422  and  _423
REMARK  179  A    between atoms: _423  and  _424
REMARK  180  A    between atoms: _426  and  _428
REMARK  181  A    between atoms: _428  and  _429
REMARK  182  A    between atoms: _432  and  _434
REMARK  183  A    between atoms: _434  and  _435
REMARK  184  A    between atoms: _434  and  _437
REMARK  185  A    between atoms: _437  and  _438
REMARK  186  A    between atoms: _443  and  _445
REMARK  187  A    between atoms: _445  and  _446
REMARK  188  A    between atoms: _445  and  _448
REMARK  189  A    between atoms: _448  and  _449
REMARK  190  A    between atoms: _455  and  _457
REMARK  191  A    between atoms: _457  and  _458
REMARK  192  A    between atoms: _457  and  _460
REMARK  193  A    between atoms: _460  and  _461
REMARK  194  A    between atoms: _466  and  _467
REMARK  195  A    between atoms: _469  and  _471
REMARK  196  A    between atoms: _471  and  _472
REMARK  197  A    between atoms: _471  and  _474
REMARK  198  A    between atoms: _474  and  _475
REMARK  199  A    between atoms: _478  and  _480
REMARK  200  A    between atoms: _480  and  _481
REMARK  201  A    between atoms: _480  and  _483
REMARK  202  A    between atoms: _483  and  _484
REMARK  203  A    between atoms: _487  and  _489
REMARK  204  A    between atoms: _489  and  _490
REMARK  205  A    between atoms: _489  and  _492
REMARK  206  A    between atoms: _492  and  _493
REMARK  207  A    between atoms: _496  and  _498
REMARK  208  A    between atoms: _498  and  _499
REMARK  209  A    between atoms: _498  and  _501
REMARK  210  A    between atoms: _501  and  _502
REMARK  211  A    between atoms: _507  and  _508
REMARK  212  A    between atoms: _510  and  _512
REMARK  213  A    between atoms: _512  and  _513
REMARK  214  A    between atoms: _512  and  _515
REMARK  215  A    between atoms: _515  and  _516
REMARK  216  A    between atoms: _519  and  _521
REMARK  217  A    between atoms: _521  and  _522
REMARK  218  A    between atoms: _521  and  _524
REMARK  219  A    between atoms: _524  and  _525
REMARK  220  A    between atoms: _525  and  _526
REMARK  221  A    between atoms: _526  and  _527
REMARK  222  A    between atoms: _536  and  _538
REMARK  223  A    between atoms: _538  and  _539
REMARK  224  A    between atoms: _538  and  _541
REMARK  225  A    between atoms: _541  and  _542
REMARK  226  A    between atoms: _548  and  _549
REMARK  227  A    between atoms: _554  and  _556
REMARK  228  A    between atoms: _556  and  _557
REMARK  229  A    between atoms: _556  and  _559
REMARK  230  A    between atoms: _559  and  _560
REMARK  231  A    between atoms: _560  and  _561
REMARK  232  A    between atoms: _563  and  _565
REMARK  233  A    between atoms: _565  and  _566
REMARK  234  A    between atoms: _565  and  _568
REMARK  235  A    between atoms: _571  and  _573
REMARK  236  A    between atoms: _573  and  _574
REMARK  237  A    between atoms: _577  and  _579
REMARK  238  A    between atoms: _579  and  _580
REMARK  239  A    between atoms: _579  and  _582
REMARK  240  A    between atoms: _582  and  _583
REMARK  241  A    between atoms: _586  and  _588
REMARK  242  A    between atoms: _588  and  _589
REMARK  243  A    between atoms: _588  and  _591
REMARK  244  A    between atoms: _591  and  _592
REMARK  245  A    between atoms: _592  and  _593
REMARK  246  A    between atoms: _598  and  _600
REMARK  247  A    between atoms: _600  and  _601
REMARK  248  A    between atoms: _600  and  _603
REMARK  249  A    between atoms: _603  and  _604
REMARK  250  A    between atoms: _607  and  _609
REMARK  251  A    between atoms: _609  and  _610
REMARK  252  A    between atoms: _609  and  _612
REMARK  253  A    between atoms: _614  and  _616
REMARK  254  A    between atoms: _616  and  _617
REMARK  255  A    between atoms: _616  and  _619
REMARK  256  A    between atoms: _619  and  _620
REMARK  257  A    between atoms: _620  and  _621
REMARK  258  A    between atoms: _624  and  _626
REMARK  259  A    between atoms: _626  and  _627
REMARK  260  A    between atoms: _626  and  _629
REMARK  261  A    between atoms: _629  and  _630
REMARK  262  A    between atoms: _630  and  _631
REMARK  263  A    between atoms: _631  and  _632
REMARK  264  A    between atoms: _632  and  _633
REMARK  265  A    between atoms: _637  and  _639
REMARK  266  A    between atoms: _639  and  _640
REMARK  267  A    between atoms: _639  and  _642
REMARK  268  A    between atoms: _642  and  _643
REMARK  269  A    between atoms: _648  and  _650
REMARK  270  A    between atoms: _650  and  _651
REMARK  271  A    between atoms: _650  and  _653
REMARK  272  A    between atoms: _653  and  _654
REMARK  273  A    between atoms: _659  and  _660
REMARK  274  A    between atoms: _662  and  _664
REMARK  275  A    between atoms: _664  and  _665
REMARK  276  A    between atoms: _664  and  _667
REMARK  277  A    between atoms: _667  and  _668
REMARK  278  A    between atoms: _668  and  _669
REMARK  279  A    between atoms: _669  and  _670
REMARK                            x       y       z     vdW  Elec       q    Type
REMARK                         _______ _______ _______ _____ _____    ______ ____
ROOT
ATOM      1  O   HOH     1      13.069  -1.342  19.676  0.00  0.00    +0.000 OA
ENDROOT
TORSDOF 0
REMARK  Name = ../refined-set-2016/3t8v/3t8v_pocket.pdb
REMARK  279 active torsions:
REMARK  status: ('A' for Active; 'I' for Inactive)
REMARK    1  A    between atoms: _1  and  _3
REMARK    2  A    between atoms: _3  and  _4
REMARK    3  A    between atoms: _7  and  _9
REMARK    4  A    between atoms: _9  and  _10
REMARK    5  A    between atoms: _9  and  _12
REMARK    6  A    between atoms: _12  and  _13
REMARK    7  A    between atoms: _16  and  _18
REMARK    8  A    between atoms: _18  and  _19
REMARK    9  A    between atoms: _18  and  _21
REMARK   10  A    between atoms: _21  and  _22
REMARK   11  A    between atoms: _25  and  _27
REMARK   12  A    between atoms: _27  and  _28
REMARK   13  A    between atoms: _27  and  _30
REMARK   14  A    between atoms: _30  and  _31
REMARK   15  A    between atoms: _31  and  _32
REMARK   16  A    between atoms: _37  and  _39
REMARK   17  A    between atoms: _39  and  _40
REMARK   18  A    between atoms: _39  and  _42
REMARK   19  A    between atoms: _44  and  _46
REMARK   20  A    between atoms: _46  and  _47
REMARK   21  A    between atoms: _46  and  _49
REMARK   22  A    between atoms: _49  and  _50
REMARK   23  A    between atoms: _50  and  _51
REMARK   24  A    between atoms: _54  and  _56
REMARK   25  A    between atoms: _56  and  _57
REMARK   26  A    between atoms: _60  and  _62
REMARK   27  A    between atoms: _62  and  _63
REMARK   28  A    between atoms: _62  and  _65
REMARK   29  A    between atoms: _65  and  _66
REMARK   30  A    between atoms: _69  and  _71
REMARK   31  A    between atoms: _71  and  _72
REMARK   32  A    between atoms: _74  and  _76
REMARK   33  A    between atoms: _76  and  _77
REMARK   34  A    between atoms: _76  and  _79
REMARK   35  A    between atoms: _79  and  _80
REMARK   36  A    between atoms: _85  and  _86
REMARK   37  A    between atoms: _88  and  _90
REMARK   38  A    between atoms: _90  and  _91
REMARK   39  A    between atoms: _90  and  _93
REMARK   40  A    between atoms: _93  and  _94
REMARK   41  A    between atoms: _100  and  _102
REMARK   42  A    between atoms: _102  and  _103
REMARK   43  A    between atoms: _102  and  _105
REMARK   44  A    between atoms: _105  and  _106
REMARK   45  A    between atoms: _111  and  _113
REMARK   46  A    between atoms: _113  and  _114
REMARK   47  A    between atoms: _113  and  _116
REMARK   48  A    between atoms: _119  and  _121
REMARK   49  A    between atoms: _121  and  _122
REMARK   50  A    between atoms: _124  and  _126
REMARK   51  A    between atoms: _126  and  _127
REMARK   52  A    between atoms: _130  and  _132
REMARK   53  A    between atoms: _132  and  _133
REMARK   54  A    between atoms: _132  and  _135
REMARK   55  A    between atoms: _135  and  _136
REMARK   56  A    between atoms: _136  and  _137
REMARK   57  A    between atoms: _139  and  _141
REMARK   58  A    between atoms: _141  and  _142
REMARK   59  A    between atoms: _141  and  _144
REMARK   60  A    between atoms: _144  and  _145
REMARK   61  A    between atoms: _145  and  _146
REMARK   62  A    between atoms: _149  and  _151
REMARK   63  A    between atoms: _151  and  _152
REMARK   64  A    between atoms: _151  and  _154
REMARK   65  A    between atoms: _154  and  _155
REMARK   66  A    between atoms: _160  and  _162
REMARK   67  A    between atoms: _162  and  _163
REMARK   68  A    between atoms: _162  and  _165
REMARK   69  A    between atoms: _165  and  _166
REMARK   70  A    between atoms: _169  and  _171
REMARK   71  A    between atoms: _171  and  _172
REMARK   72  A    between atoms: _171  and  _174
REMARK   73  A    between atoms: _174  and  _175
REMARK   74  A    between atoms: _181  and  _183
REMARK   75  A    between atoms: _183  and  _184
REMARK   76  A    between atoms: _183  and  _186
REMARK   77  A    between atoms: _186  and  _187
REMARK   78  A    between atoms: _192  and  _194
REMARK   79  A    between atoms: _194  and  _195
REMARK   80  A    between atoms: _194  and  _197
REMARK   81  A    between atoms: _197  and  _198
REMARK   82  A    between atoms: _203  and  _205
REMARK   83  A    between atoms: _205  and  _206
REMARK   84  A    between atoms: _205  and  _208
REMARK   85  A    between atoms: _208  and  _209
REMARK   86  A    between atoms: _211  and  _213
REMARK   87  A    between atoms: _213  and  _214
REMARK   88  A    between atoms: _213  and  _216
REMARK   89  A    between atoms: _216  and  _217
REMARK   90  A    between atoms: _217  and  _218
REMARK   91  A    between atoms: _218  and  _219
REMARK   92  A    between atoms: _228  and  _230
REMARK   93  A    between atoms: _230  and  _231
REMARK   94  A    between atoms: _230  and  _233
REMARK   95  A    between atoms: _233  and  _234
REMARK   96  A    between atoms: _237  and  _239
REMARK   97  A    between atoms: _239  and  _240
REMARK   98  A    between atoms: _239  and  _242
REMARK   99  A    between atoms: _245  and  _247
REMARK  100  A    between atoms: _247  and  _248
REMARK  101  A    between atoms: _247  and  _250
REMARK  102  A    between atoms: _253  and  _255
REMARK  103  A    between atoms: _255  and  _256
REMARK  104  A    between atoms: _258  and  _260
REMARK  105  A    between atoms: _260  and  _261
REMARK  106  A    between atoms: _260  and  _263
REMARK  107  A    between atoms: _263  and  _264
REMARK  108  A    between atoms: _268  and  ZN_679
REMARK  109  A    between atoms: _269  and  _271
REMARK  110  A    between atoms: _271  and  _272
REMARK  111  A    between atoms: _271  and  _274
REMARK  112  A    between atoms: _274  and  _275
REMARK  113  A    between atoms: _275  and  _276
REMARK  114  A    between atoms: _279  and  _281
REMARK  115  A    between atoms: _281  and  _282
REMARK  116  A    between atoms: _281  and  _284
REMARK  117  A    between atoms: _284  and  _285
REMARK  118  A    between atoms: _290  and  _291
REMARK  119  A    between atoms: _293  and  _295
REMARK  120  A    between atoms: _295  and  _296
REMARK  121  A    between atoms: _295  and  _298
REMARK  122  A    between atoms: _298  and  _299
REMARK  123  A    between atoms: _303  and  ZN_679
REMARK  124  A    between atoms: _304  and  _306
REMARK  125  A    between atoms: _306  and  _307
REMARK  126  A    between atoms: _306  and  _309
REMARK  127  A    between atoms: _309  and  _310
REMARK  128  A    between atoms: _320  and  _322
REMARK  129  A    between atoms: _322  and  _323
REMARK  130  A    between atoms: _322  and  _325
REMARK  131  A    between atoms: _325  and  _326
REMARK  132  A    between atoms: _329  and  _331
REMARK  133  A    between atoms: _331  and  _332
REMARK  134  A    between atoms: _331  and  _334
REMARK  135  A    between atoms: _334  and  _335
REMARK  136  A    between atoms: _335  and  _336
REMARK  137  A    between atoms: _336  and  _337
REMARK  138  A    between atoms: _337  and  _338
REMARK  139  A    between atoms: _342  and  _344
REMARK  140  A    between atoms: _344  and  _345
REMARK  141  A    between atoms: _344  and  _347
REMARK  142  A    between atoms: _347  and  _348
REMARK  143  A    between atoms: _348  and  _349
REMARK  144  A    between atoms: _349  and  _350
REMARK  145  A    between atoms: _350  and  ZN_679
REMARK  146  A    between atoms: _352  and  _354
REMARK  147  A    between atoms: _354  and  _355
REMARK  148  A    between atoms: _354  and  _357
REMARK  149  A    between atoms: _357  and  _358
REMARK  150  A    between atoms: _361  and  _363
REMARK  151  A    between atoms: _363  and  _364
REMARK  152  A    between atoms: _363  and  _366
REMARK  153  A    between atoms: _369  and  _371
REMARK  154  A    between atoms: _371  and  _372
REMARK  155  A    between atoms: _371  and  _374
REMARK  156  A    between atoms: _374  and  _375
REMARK  157  A    between atoms: _375  and  _376
REMARK  158  A    between atoms: _379  and  _381
REMARK  159  A    between atoms: _381  and  _382
REMARK  160  A    between atoms: _381  and  _384
REMARK  161  A    between atoms: _384  and  _385
REMARK  162  A    between atoms: _385  and  _386
REMARK  163  A    between atoms: _389  and  _391
REMARK  164  A    between atoms: _391  and  _392
REMARK  165  A    between atoms: _391  and  _394
REMARK  166  A    between atoms: _394  and  _395
REMARK  167  A    between atoms: _398  and  _400
REMARK  168  A    between atoms: _400  and  _401
REMARK  169  A    between atoms: _400  and  _403
REMARK  170  A    between atoms: _403  and  _404
REMARK  171  A    between atoms: _409  and  _411
REMARK  172  A    between atoms: _411  and  _412
REMARK  173  A    between atoms: _411  and  _414
REMARK  174  A    between atoms: _414  and  _415
REMARK  175  A    between atoms: _417  and  _419
REMARK  176  A    between atoms: _419  and  _420
REMARK  177  A    between atoms: _419  and  _422
REMARK  178  A    between atoms: _422  and  _423
REMARK  179  A    between atoms: _423  and  _424
REMARK  180  A    between atoms: _426  and  _428
REMARK  181  A    between atoms: _428  and  _429
REMARK  182  A    between atoms: _432  and  _434
REMARK  183  A    between atoms: _434  and  _435
REMARK  184  A    between atoms: _434  and  _437
REMARK  185  A    between atoms: _437  and  _438
REMARK  186  A    between atoms: _443  and  _445
REMARK  187  A    between atoms: _445  and  _446
REMARK  188  A    between atoms: _445  and  _448
REMARK  189  A    between atoms: _448  and  _449
REMARK  190  A    between atoms: _455  and  _457
REMARK  191  A    between atoms: _457  and  _458
REMARK  192  A    between atoms: _457  and  _460
REMARK  193  A    between atoms: _460  and  _461
REMARK  194  A    between atoms: _466  and  _467
REMARK  195  A    between atoms: _469  and  _471
REMARK  196  A    between atoms: _471  and  _472
REMARK  197  A    between atoms: _471  and  _474
REMARK  198  A    between atoms: _474  and  _475
REMARK  199  A    between atoms: _478  and  _480
REMARK  200  A    between atoms: _480  and  _481
REMARK  201  A    between atoms: _480  and  _483
REMARK  202  A    between atoms: _483  and  _484
REMARK  203  A    between atoms: _487  and  _489
REMARK  204  A    between atoms: _489  and  _490
REMARK  205  A    between atoms: _489  and  _492
REMARK  206  A    between atoms: _492  and  _493
REMARK  207  A    between atoms: _496  and  _498
REMARK  208  A    between atoms: _498  and  _499
REMARK  209  A    between atoms: _498  and  _501
REMARK  210  A    between atoms: _501  and  _502
REMARK  211  A    between atoms: _507  and  _508
REMARK  212  A    between atoms: _510  and  _512
REMARK  213  A    between atoms: _512  and  _513
REMARK  214  A    between atoms: _512  and  _515
REMARK  215  A    between atoms: _515  and  _516
REMARK  216  A    between atoms: _519  and  _521
REMARK  217  A    between atoms: _521  and  _522
REMARK  218  A    between atoms: _521  and  _524
REMARK  219  A    between atoms: _524  and  _525
REMARK  220  A    between atoms: _525  and  _526
REMARK  221  A    between atoms: _526  and  _527
REMARK  222  A    between atoms: _536  and  _538
REMARK  223  A    between atoms: _538  and  _539
REMARK  224  A    between atoms: _538  and  _541
REMARK  225  A    between atoms: _541  and  _542
REMARK  226  A    between atoms: _548  and  _549
REMARK  227  A    between atoms: _554  and  _556
REMARK  228  A    between atoms: _556  and  _557
REMARK  229  A    between atoms: _556  and  _559
REMARK  230  A    between atoms: _559  and  _560
REMARK  231  A    between atoms: _560  and  _561
REMARK  232  A    between atoms: _563  and  _565
REMARK  233  A    between atoms: _565  and  _566
REMARK  234  A    between atoms: _565  and  _568
REMARK  235  A    between atoms: _571  and  _573
REMARK  236  A    between atoms: _573  and  _574
REMARK  237  A    between atoms: _577  and  _579
REMARK  238  A    between atoms: _579  and  _580
REMARK  239  A    between atoms: _579  and  _582
REMARK  240  A    between atoms: _582  and  _583
REMARK  241  A    between atoms: _586  and  _588
REMARK  242  A    between atoms: _588  and  _589
REMARK  243  A    between atoms: _588  and  _591
REMARK  244  A    between atoms: _591  and  _592
REMARK  245  A    between atoms: _592  and  _593
REMARK  246  A    between atoms: _598  and  _600
REMARK  247  A    between atoms: _600  and  _601
REMARK  248  A    between atoms: _600  and  _603
REMARK  249  A    between atoms: _603  and  _604
REMARK  250  A    between atoms: _607  and  _609
REMARK  251  A    between atoms: _609  and  _610
REMARK  252  A    between atoms: _609  and  _612
REMARK  253  A    between atoms: _614  and  _616
REMARK  254  A    between atoms: _616  and  _617
REMARK  255  A    between atoms: _616  and  _619
REMARK  256  A    between atoms: _619  and  _620
REMARK  257  A    between atoms: _620  and  _621
REMARK  258  A    between atoms: _624  and  _626
REMARK  259  A    between atoms: _626  and  _627
REMARK  260  A    between atoms: _626  and  _629
REMARK  261  A    between atoms: _629  and  _630
REMARK  262  A    between atoms: _630  and  _631
REMARK  263  A    between atoms: _631  and  _632
REMARK  264  A    between atoms: _632  and  _633
REMARK  265  A    between atoms: _637  and  _639
REMARK  266  A    between atoms: _639  and  _640
REMARK  267  A    between atoms: _639  and  _642
REMARK  268  A    between atoms: _642  and  _643
REMARK  269  A    between atoms: _648  and  _650
REMARK  270  A    between atoms: _650  and  _651
REMARK  271  A    between atoms: _650  and  _653
REMARK  272  A    between atoms: _653  and  _654
REMARK  273  A    between atoms: _659  and  _660
REMARK  274  A    between atoms: _662  and  _664
REMARK  275  A    between atoms: _664  and  _665
REMARK  276  A    between atoms: _664  and  _667
REMARK  277  A    between atoms: _667  and  _668
REMARK  278  A    between atoms: _668  and  _669
REMARK  279  A    between atoms: _669  and  _670
REMARK                            x       y       z     vdW  Elec       q    Type
REMARK                         _______ _______ _______ _____ _____    ______ ____
ROOT
ATOM      1  O   HOH     1      14.948   3.522  13.450  0.00  0.00    +0.000 OA
ENDROOT
TORSDOF 0
REMARK  Name = ../refined-set-2016/3t8v/3t8v_pocket.pdb
REMARK  279 active torsions:
REMARK  status: ('A' for Active; 'I' for Inactive)
REMARK    1  A    between atoms: _1  and  _3
REMARK    2  A    between atoms: _3  and  _4
REMARK    3  A    between atoms: _7  and  _9
REMARK    4  A    between atoms: _9  and  _10
REMARK    5  A    between atoms: _9  and  _12
REMARK    6  A    between atoms: _12  and  _13
REMARK    7  A    between atoms: _16  and  _18
REMARK    8  A    between atoms: _18  and  _19
REMARK    9  A    between atoms: _18  and  _21
REMARK   10  A    between atoms: _21  and  _22
REMARK   11  A    between atoms: _25  and  _27
REMARK   12  A    between atoms: _27  and  _28
REMARK   13  A    between atoms: _27  and  _30
REMARK   14  A    between atoms: _30  and  _31
REMARK   15  A    between atoms: _31  and  _32
REMARK   16  A    between atoms: _37  and  _39
REMARK   17  A    between atoms: _39  and  _40
REMARK   18  A    between atoms: _39  and  _42
REMARK   19  A    between atoms: _44  and  _46
REMARK   20  A    between atoms: _46  and  _47
REMARK   21  A    between atoms: _46  and  _49
REMARK   22  A    between atoms: _49  and  _50
REMARK   23  A    between atoms: _50  and  _51
REMARK   24  A    between atoms: _54  and  _56
REMARK   25  A    between atoms: _56  and  _57
REMARK   26  A    between atoms: _60  and  _62
REMARK   27  A    between atoms: _62  and  _63
REMARK   28  A    between atoms: _62  and  _65
REMARK   29  A    between atoms: _65  and  _66
REMARK   30  A    between atoms: _69  and  _71
REMARK   31  A    between atoms: _71  and  _72
REMARK   32  A    between atoms: _74  and  _76
REMARK   33  A    between atoms: _76  and  _77
REMARK   34  A    between atoms: _76  and  _79
REMARK   35  A    between atoms: _79  and  _80
REMARK   36  A    between atoms: _85  and  _86
REMARK   37  A    between atoms: _88  and  _90
REMARK   38  A    between atoms: _90  and  _91
REMARK   39  A    between atoms: _90  and  _93
REMARK   40  A    between atoms: _93  and  _94
REMARK   41  A    between atoms: _100  and  _102
REMARK   42  A    between atoms: _102  and  _103
REMARK   43  A    between atoms: _102  and  _105
REMARK   44  A    between atoms: _105  and  _106
REMARK   45  A    between atoms: _111  and  _113
REMARK   46  A    between atoms: _113  and  _114
REMARK   47  A    between atoms: _113  and  _116
REMARK   48  A    between atoms: _119  and  _121
REMARK   49  A    between atoms: _121  and  _122
REMARK   50  A    between atoms: _124  and  _126
REMARK   51  A    between atoms: _126  and  _127
REMARK   52  A    between atoms: _130  and  _132
REMARK   53  A    between atoms: _132  and  _133
REMARK   54  A    between atoms: _132  and  _135
REMARK   55  A    between atoms: _135  and  _136
REMARK   56  A    between atoms: _136  and  _137
REMARK   57  A    between atoms: _139  and  _141
REMARK   58  A    between atoms: _141  and  _142
REMARK   59  A    between atoms: _141  and  _144
REMARK   60  A    between atoms: _144  and  _145
REMARK   61  A    between atoms: _145  and  _146
REMARK   62  A    between atoms: _149  and  _151
REMARK   63  A    between atoms: _151  and  _152
REMARK   64  A    between atoms: _151  and  _154
REMARK   65  A    between atoms: _154  and  _155
REMARK   66  A    between atoms: _160  and  _162
REMARK   67  A    between atoms: _162  and  _163
REMARK   68  A    between atoms: _162  and  _165
REMARK   69  A    between atoms: _165  and  _166
REMARK   70  A    between atoms: _169  and  _171
REMARK   71  A    between atoms: _171  and  _172
REMARK   72  A    between atoms: _171  and  _174
REMARK   73  A    between atoms: _174  and  _175
REMARK   74  A    between atoms: _181  and  _183
REMARK   75  A    between atoms: _183  and  _184
REMARK   76  A    between atoms: _183  and  _186
REMARK   77  A    between atoms: _186  and  _187
REMARK   78  A    between atoms: _192  and  _194
REMARK   79  A    between atoms: _194  and  _195
REMARK   80  A    between atoms: _194  and  _197
REMARK   81  A    between atoms: _197  and  _198
REMARK   82  A    between atoms: _203  and  _205
REMARK   83  A    between atoms: _205  and  _206
REMARK   84  A    between atoms: _205  and  _208
REMARK   85  A    between atoms: _208  and  _209
REMARK   86  A    between atoms: _211  and  _213
REMARK   87  A    between atoms: _213  and  _214
REMARK   88  A    between atoms: _213  and  _216
REMARK   89  A    between atoms: _216  and  _217
REMARK   90  A    between atoms: _217  and  _218
REMARK   91  A    between atoms: _218  and  _219
REMARK   92  A    between atoms: _228  and  _230
REMARK   93  A    between atoms: _230  and  _231
REMARK   94  A    between atoms: _230  and  _233
REMARK   95  A    between atoms: _233  and  _234
REMARK   96  A    between atoms: _237  and  _239
REMARK   97  A    between atoms: _239  and  _240
REMARK   98  A    between atoms: _239  and  _242
REMARK   99  A    between atoms: _245  and  _247
REMARK  100  A    between atoms: _247  and  _248
REMARK  101  A    between atoms: _247  and  _250
REMARK  102  A    between atoms: _253  and  _255
REMARK  103  A    between atoms: _255  and  _256
REMARK  104  A    between atoms: _258  and  _260
REMARK  105  A    between atoms: _260  and  _261
REMARK  106  A    between atoms: _260  and  _263
REMARK  107  A    between atoms: _263  and  _264
REMARK  108  A    between atoms: _268  and  ZN_679
REMARK  109  A    between atoms: _269  and  _271
REMARK  110  A    between atoms: _271  and  _272
REMARK  111  A    between atoms: _271  and  _274
REMARK  112  A    between atoms: _274  and  _275
REMARK  113  A    between atoms: _275  and  _276
REMARK  114  A    between atoms: _279  and  _281
REMARK  115  A    between atoms: _281  and  _282
REMARK  116  A    between atoms: _281  and  _284
REMARK  117  A    between atoms: _284  and  _285
REMARK  118  A    between atoms: _290  and  _291
REMARK  119  A    between atoms: _293  and  _295
REMARK  120  A    between atoms: _295  and  _296
REMARK  121  A    between atoms: _295  and  _298
REMARK  122  A    between atoms: _298  and  _299
REMARK  123  A    between atoms: _303  and  ZN_679
REMARK  124  A    between atoms: _304  and  _306
REMARK  125  A    between atoms: _306  and  _307
REMARK  126  A    between atoms: _306  and  _309
REMARK  127  A    between atoms: _309  and  _310
REMARK  128  A    between atoms: _320  and  _322
REMARK  129  A    between atoms: _322  and  _323
REMARK  130  A    between atoms: _322  and  _325
REMARK  131  A    between atoms: _325  and  _326
REMARK  132  A    between atoms: _329  and  _331
REMARK  133  A    between atoms: _331  and  _332
REMARK  134  A    between atoms: _331  and  _334
REMARK  135  A    between atoms: _334  and  _335
REMARK  136  A    between atoms: _335  and  _336
REMARK  137  A    between atoms: _336  and  _337
REMARK  138  A    between atoms: _337  and  _338
REMARK  139  A    between atoms: _342  and  _344
REMARK  140  A    between atoms: _344  and  _345
REMARK  141  A    between atoms: _344  and  _347
REMARK  142  A    between atoms: _347  and  _348
REMARK  143  A    between atoms: _348  and  _349
REMARK  144  A    between atoms: _349  and  _350
REMARK  145  A    between atoms: _350  and  ZN_679
REMARK  146  A    between atoms: _352  and  _354
REMARK  147  A    between atoms: _354  and  _355
REMARK  148  A    between atoms: _354  and  _357
REMARK  149  A    between atoms: _357  and  _358
REMARK  150  A    between atoms: _361  and  _363
REMARK  151  A    between atoms: _363  and  _364
REMARK  152  A    between atoms: _363  and  _366
REMARK  153  A    between atoms: _369  and  _371
REMARK  154  A    between atoms: _371  and  _372
REMARK  155  A    between atoms: _371  and  _374
REMARK  156  A    between atoms: _374  and  _375
REMARK  157  A    between atoms: _375  and  _376
REMARK  158  A    between atoms: _379  and  _381
REMARK  159  A    between atoms: _381  and  _382
REMARK  160  A    between atoms: _381  and  _384
REMARK  161  A    between atoms: _384  and  _385
REMARK  162  A    between atoms: _385  and  _386
REMARK  163  A    between atoms: _389  and  _391
REMARK  164  A    between atoms: _391  and  _392
REMARK  165  A    between atoms: _391  and  _394
REMARK  166  A    between atoms: _394  and  _395
REMARK  167  A    between atoms: _398  and  _400
REMARK  168  A    between atoms: _400  and  _401
REMARK  169  A    between atoms: _400  and  _403
REMARK  170  A    between atoms: _403  and  _404
REMARK  171  A    between atoms: _409  and  _411
REMARK  172  A    between atoms: _411  and  _412
REMARK  173  A    between atoms: _411  and  _414
REMARK  174  A    between atoms: _414  and  _415
REMARK  175  A    between atoms: _417  and  _419
REMARK  176  A    between atoms: _419  and  _420
REMARK  177  A    between atoms: _419  and  _422
REMARK  178  A    between atoms: _422  and  _423
REMARK  179  A    between atoms: _423  and  _424
REMARK  180  A    between atoms: _426  and  _428
REMARK  181  A    between atoms: _428  and  _429
REMARK  182  A    between atoms: _432  and  _434
REMARK  183  A    between atoms: _434  and  _435
REMARK  184  A    between atoms: _434  and  _437
REMARK  185  A    between atoms: _437  and  _438
REMARK  186  A    between atoms: _443  and  _445
REMARK  187  A    between atoms: _445  and  _446
REMARK  188  A    between atoms: _445  and  _448
REMARK  189  A    between atoms: _448  and  _449
REMARK  190  A    between atoms: _455  and  _457
REMARK  191  A    between atoms: _457  and  _458
REMARK  192  A    between atoms: _457  and  _460
REMARK  193  A    between atoms: _460  and  _461
REMARK  194  A    between atoms: _466  and  _467
REMARK  195  A    between atoms: _469  and  _471
REMARK  196  A    between atoms: _471  and  _472
REMARK  197  A    between atoms: _471  and  _474
REMARK  198  A    between atoms: _474  and  _475
REMARK  199  A    between atoms: _478  and  _480
REMARK  200  A    between atoms: _480  and  _481
REMARK  201  A    between atoms: _480  and  _483
REMARK  202  A    between atoms: _483  and  _484
REMARK  203  A    between atoms: _487  and  _489
REMARK  204  A    between atoms: _489  and  _490
REMARK  205  A    between atoms: _489  and  _492
REMARK  206  A    between atoms: _492  and  _493
REMARK  207  A    between atoms: _496  and  _498
REMARK  208  A    between atoms: _498  and  _499
REMARK  209  A    between atoms: _498  and  _501
REMARK  210  A    between atoms: _501  and  _502
REMARK  211  A    between atoms: _507  and  _508
REMARK  212  A    between atoms: _510  and  _512
REMARK  213  A    between atoms: _512  and  _513
REMARK  214  A    between atoms: _512  and  _515
REMARK  215  A    between atoms: _515  and  _516
REMARK  216  A    between atoms: _519  and  _521
REMARK  217  A    between atoms: _521  and  _522
REMARK  218  A    between atoms: _521  and  _524
REMARK  219  A    between atoms: _524  and  _525
REMARK  220  A    between atoms: _525  and  _526
REMARK  221  A    between atoms: _526  and  _527
REMARK  222  A    between atoms: _536  and  _538
REMARK  223  A    between atoms: _538  and  _539
REMARK  224  A    between atoms: _538  and  _541
REMARK  225  A    between atoms: _541  and  _542
REMARK  226  A    between atoms: _548  and  _549
REMARK  227  A    between atoms: _554  and  _556
REMARK  228  A    between atoms: _556  and  _557
REMARK  229  A    between atoms: _556  and  _559
REMARK  230  A    between atoms: _559  and  _560
REMARK  231  A    between atoms: _560  and  _561
REMARK  232  A    between atoms: _563  and  _565
REMARK  233  A    between atoms: _565  and  _566
REMARK  234  A    between atoms: _565  and  _568
REMARK  235  A    between atoms: _571  and  _573
REMARK  236  A    between atoms: _573  and  _574
REMARK  237  A    between atoms: _577  and  _579
REMARK  238  A    between atoms: _579  and  _580
REMARK  239  A    between atoms: _579  and  _582
REMARK  240  A    between atoms: _582  and  _583
REMARK  241  A    between atoms: _586  and  _588
REMARK  242  A    between atoms: _588  and  _589
REMARK  243  A    between atoms: _588  and  _591
REMARK  244  A    between atoms: _591  and  _592
REMARK  245  A    between atoms: _592  and  _593
REMARK  246  A    between atoms: _598  and  _600
REMARK  247  A    between atoms: _600  and  _601
REMARK  248  A    between atoms: _600  and  _603
REMARK  249  A    between atoms: _603  and  _604
REMARK  250  A    between atoms: _607  and  _609
REMARK  251  A    between atoms: _609  and  _610
REMARK  252  A    between atoms: _609  and  _612
REMARK  253  A    between atoms: _614  and  _616
REMARK  254  A    between atoms: _616  and  _617
REMARK  255  A    between atoms: _616  and  _619
REMARK  256  A    between atoms: _619  and  _620
REMARK  257  A    between atoms: _620  and  _621
REMARK  258  A    between atoms: _624  and  _626
REMARK  259  A    between atoms: _626  and  _627
REMARK  260  A    between atoms: _626  and  _629
REMARK  261  A    between atoms: _629  and  _630
REMARK  262  A    between atoms: _630  and  _631
REMARK  263  A    between atoms: _631  and  _632
REMARK  264  A    between atoms: _632  and  _633
REMARK  265  A    between atoms: _637  and  _639
REMARK  266  A    between atoms: _639  and  _640
REMARK  267  A    between atoms: _639  and  _642
REMARK  268  A    between atoms: _642  and  _643
REMARK  269  A    between atoms: _648  and  _650
REMARK  270  A    between atoms: _650  and  _651
REMARK  271  A    between atoms: _650  and  _653
REMARK  272  A    between atoms: _653  and  _654
REMARK  273  A    between atoms: _659  and  _660
REMARK  274  A    between atoms: _662  and  _664
REMARK  275  A    between atoms: _664  and  _665
REMARK  276  A    between atoms: _664  and  _667
REMARK  277  A    between atoms: _667  and  _668
REMARK  278  A    between atoms: _668  and  _669
REMARK  279  A    between atoms: _669  and  _670
REMARK                            x       y       z     vdW  Elec       q    Type
REMARK                         _______ _______ _______ _____ _____    ______ ____
ROOT
ATOM      1  O   HOH     1      16.816   1.998  10.793  0.00  0.00    +0.000 OA
ENDROOT
TORSDOF 0
REMARK  Name = ../refined-set-2016/3t8v/3t8v_pocket.pdb
REMARK  279 active torsions:
REMARK  status: ('A' for Active; 'I' for Inactive)
REMARK    1  A    between atoms: _1  and  _3
REMARK    2  A    between atoms: _3  and  _4
REMARK    3  A    between atoms: _7  and  _9
REMARK    4  A    between atoms: _9  and  _10
REMARK    5  A    between atoms: _9  and  _12
REMARK    6  A    between atoms: _12  and  _13
REMARK    7  A    between atoms: _16  and  _18
REMARK    8  A    between atoms: _18  and  _19
REMARK    9  A    between atoms: _18  and  _21
REMARK   10  A    between atoms: _21  and  _22
REMARK   11  A    between atoms: _25  and  _27
REMARK   12  A    between atoms: _27  and  _28
REMARK   13  A    between atoms: _27  and  _30
REMARK   14  A    between atoms: _30  and  _31
REMARK   15  A    between atoms: _31  and  _32
REMARK   16  A    between atoms: _37  and  _39
REMARK   17  A    between atoms: _39  and  _40
REMARK   18  A    between atoms: _39  and  _42
REMARK   19  A    between atoms: _44  and  _46
REMARK   20  A    between atoms: _46  and  _47
REMARK   21  A    between atoms: _46  and  _49
REMARK   22  A    between atoms: _49  and  _50
REMARK   23  A    between atoms: _50  and  _51
REMARK   24  A    between atoms: _54  and  _56
REMARK   25  A    between atoms: _56  and  _57
REMARK   26  A    between atoms: _60  and  _62
REMARK   27  A    between atoms: _62  and  _63
REMARK   28  A    between atoms: _62  and  _65
REMARK   29  A    between atoms: _65  and  _66
REMARK   30  A    between atoms: _69  and  _71
REMARK   31  A    between atoms: _71  and  _72
REMARK   32  A    between atoms: _74  and  _76
REMARK   33  A    between atoms: _76  and  _77
REMARK   34  A    between atoms: _76  and  _79
REMARK   35  A    between atoms: _79  and  _80
REMARK   36  A    between atoms: _85  and  _86
REMARK   37  A    between atoms: _88  and  _90
REMARK   38  A    between atoms: _90  and  _91
REMARK   39  A    between atoms: _90  and  _93
REMARK   40  A    between atoms: _93  and  _94
REMARK   41  A    between atoms: _100  and  _102
REMARK   42  A    between atoms: _102  and  _103
REMARK   43  A    between atoms: _102  and  _105
REMARK   44  A    between atoms: _105  and  _106
REMARK   45  A    between atoms: _111  and  _113
REMARK   46  A    between atoms: _113  and  _114
REMARK   47  A    between atoms: _113  and  _116
REMARK   48  A    between atoms: _119  and  _121
REMARK   49  A    between atoms: _121  and  _122
REMARK   50  A    between atoms: _124  and  _126
REMARK   51  A    between atoms: _126  and  _127
REMARK   52  A    between atoms: _130  and  _132
REMARK   53  A    between atoms: _132  and  _133
REMARK   54  A    between atoms: _132  and  _135
REMARK   55  A    between atoms: _135  and  _136
REMARK   56  A    between atoms: _136  and  _137
REMARK   57  A    between atoms: _139  and  _141
REMARK   58  A    between atoms: _141  and  _142
REMARK   59  A    between atoms: _141  and  _144
REMARK   60  A    between atoms: _144  and  _145
REMARK   61  A    between atoms: _145  and  _146
REMARK   62  A    between atoms: _149  and  _151
REMARK   63  A    between atoms: _151  and  _152
REMARK   64  A    between atoms: _151  and  _154
REMARK   65  A    between atoms: _154  and  _155
REMARK   66  A    between atoms: _160  and  _162
REMARK   67  A    between atoms: _162  and  _163
REMARK   68  A    between atoms: _162  and  _165
REMARK   69  A    between atoms: _165  and  _166
REMARK   70  A    between atoms: _169  and  _171
REMARK   71  A    between atoms: _171  and  _172
REMARK   72  A    between atoms: _171  and  _174
REMARK   73  A    between atoms: _174  and  _175
REMARK   74  A    between atoms: _181  and  _183
REMARK   75  A    between atoms: _183  and  _184
REMARK   76  A    between atoms: _183  and  _186
REMARK   77  A    between atoms: _186  and  _187
REMARK   78  A    between atoms: _192  and  _194
REMARK   79  A    between atoms: _194  and  _195
REMARK   80  A    between atoms: _194  and  _197
REMARK   81  A    between atoms: _197  and  _198
REMARK   82  A    between atoms: _203  and  _205
REMARK   83  A    between atoms: _205  and  _206
REMARK   84  A    between atoms: _205  and  _208
REMARK   85  A    between atoms: _208  and  _209
REMARK   86  A    between atoms: _211  and  _213
REMARK   87  A    between atoms: _213  and  _214
REMARK   88  A    between atoms: _213  and  _216
REMARK   89  A    between atoms: _216  and  _217
REMARK   90  A    between atoms: _217  and  _218
REMARK   91  A    between atoms: _218  and  _219
REMARK   92  A    between atoms: _228  and  _230
REMARK   93  A    between atoms: _230  and  _231
REMARK   94  A    between atoms: _230  and  _233
REMARK   95  A    between atoms: _233  and  _234
REMARK   96  A    between atoms: _237  and  _239
REMARK   97  A    between atoms: _239  and  _240
REMARK   98  A    between atoms: _239  and  _242
REMARK   99  A    between atoms: _245  and  _247
REMARK  100  A    between atoms: _247  and  _248
REMARK  101  A    between atoms: _247  and  _250
REMARK  102  A    between atoms: _253  and  _255
REMARK  103  A    between atoms: _255  and  _256
REMARK  104  A    between atoms: _258  and  _260
REMARK  105  A    between atoms: _260  and  _261
REMARK  106  A    between atoms: _260  and  _263
REMARK  107  A    between atoms: _263  and  _264
REMARK  108  A    between atoms: _268  and  ZN_679
REMARK  109  A    between atoms: _269  and  _271
REMARK  110  A    between atoms: _271  and  _272
REMARK  111  A    between atoms: _271  and  _274
REMARK  112  A    between atoms: _274  and  _275
REMARK  113  A    between atoms: _275  and  _276
REMARK  114  A    between atoms: _279  and  _281
REMARK  115  A    between atoms: _281  and  _282
REMARK  116  A    between atoms: _281  and  _284
REMARK  117  A    between atoms: _284  and  _285
REMARK  118  A    between atoms: _290  and  _291
REMARK  119  A    between atoms: _293  and  _295
REMARK  120  A    between atoms: _295  and  _296
REMARK  121  A    between atoms: _295  and  _298
REMARK  122  A    between atoms: _298  and  _299
REMARK  123  A    between atoms: _303  and  ZN_679
REMARK  124  A    between atoms: _304  and  _306
REMARK  125  A    between atoms: _306  and  _307
REMARK  126  A    between atoms: _306  and  _309
REMARK  127  A    between atoms: _309  and  _310
REMARK  128  A    between atoms: _320  and  _322
REMARK  129  A    between atoms: _322  and  _323
REMARK  130  A    between atoms: _322  and  _325
REMARK  131  A    between atoms: _325  and  _326
REMARK  132  A    between atoms: _329  and  _331
REMARK  133  A    between atoms: _331  and  _332
REMARK  134  A    between atoms: _331  and  _334
REMARK  135  A    between atoms: _334  and  _335
REMARK  136  A    between atoms: _335  and  _336
REMARK  137  A    between atoms: _336  and  _337
REMARK  138  A    between atoms: _337  and  _338
REMARK  139  A    between atoms: _342  and  _344
REMARK  140  A    between atoms: _344  and  _345
REMARK  141  A    between atoms: _344  and  _347
REMARK  142  A    between atoms: _347  and  _348
REMARK  143  A    between atoms: _348  and  _349
REMARK  144  A    between atoms: _349  and  _350
REMARK  145  A    between atoms: _350  and  ZN_679
REMARK  146  A    between atoms: _352  and  _354
REMARK  147  A    between atoms: _354  and  _355
REMARK  148  A    between atoms: _354  and  _357
REMARK  149  A    between atoms: _357  and  _358
REMARK  150  A    between atoms: _361  and  _363
REMARK  151  A    between atoms: _363  and  _364
REMARK  152  A    between atoms: _363  and  _366
REMARK  153  A    between atoms: _369  and  _371
REMARK  154  A    between atoms: _371  and  _372
REMARK  155  A    between atoms: _371  and  _374
REMARK  156  A    between atoms: _374  and  _375
REMARK  157  A    between atoms: _375  and  _376
REMARK  158  A    between atoms: _379  and  _381
REMARK  159  A    between atoms: _381  and  _382
REMARK  160  A    between atoms: _381  and  _384
REMARK  161  A    between atoms: _384  and  _385
REMARK  162  A    between atoms: _385  and  _386
REMARK  163  A    between atoms: _389  and  _391
REMARK  164  A    between atoms: _391  and  _392
REMARK  165  A    between atoms: _391  and  _394
REMARK  166  A    between atoms: _394  and  _395
REMARK  167  A    between atoms: _398  and  _400
REMARK  168  A    between atoms: _400  and  _401
REMARK  169  A    between atoms: _400  and  _403
REMARK  170  A    between atoms: _403  and  _404
REMARK  171  A    between atoms: _409  and  _411
REMARK  172  A    between atoms: _411  and  _412
REMARK  173  A    between atoms: _411  and  _414
REMARK  174  A    between atoms: _414  and  _415
REMARK  175  A    between atoms: _417  and  _419
REMARK  176  A    between atoms: _419  and  _420
REMARK  177  A    between atoms: _419  and  _422
REMARK  178  A    between atoms: _422  and  _423
REMARK  179  A    between atoms: _423  and  _424
REMARK  180  A    between atoms: _426  and  _428
REMARK  181  A    between atoms: _428  and  _429
REMARK  182  A    between atoms: _432  and  _434
REMARK  183  A    between atoms: _434  and  _435
REMARK  184  A    between atoms: _434  and  _437
REMARK  185  A    between atoms: _437  and  _438
REMARK  186  A    between atoms: _443  and  _445
REMARK  187  A    between atoms: _445  and  _446
REMARK  188  A    between atoms: _445  and  _448
REMARK  189  A    between atoms: _448  and  _449
REMARK  190  A    between atoms: _455  and  _457
REMARK  191  A    between atoms: _457  and  _458
REMARK  192  A    between atoms: _457  and  _460
REMARK  193  A    between atoms: _460  and  _461
REMARK  194  A    between atoms: _466  and  _467
REMARK  195  A    between atoms: _469  and  _471
REMARK  196  A    between atoms: _471  and  _472
REMARK  197  A    between atoms: _471  and  _474
REMARK  198  A    between atoms: _474  and  _475
REMARK  199  A    between atoms: _478  and  _480
REMARK  200  A    between atoms: _480  and  _481
REMARK  201  A    between atoms: _480  and  _483
REMARK  202  A    between atoms: _483  and  _484
REMARK  203  A    between atoms: _487  and  _489
REMARK  204  A    between atoms: _489  and  _490
REMARK  205  A    between atoms: _489  and  _492
REMARK  206  A    between atoms: _492  and  _493
REMARK  207  A    between atoms: _496  and  _498
REMARK  208  A    between atoms: _498  and  _499
REMARK  209  A    between atoms: _498  and  _501
REMARK  210  A    between atoms: _501  and  _502
REMARK  211  A    between atoms: _507  and  _508
REMARK  212  A    between atoms: _510  and  _512
REMARK  213  A    between atoms: _512  and  _513
REMARK  214  A    between atoms: _512  and  _515
REMARK  215  A    between atoms: _515  and  _516
REMARK  216  A    between atoms: _519  and  _521
REMARK  217  A    between atoms: _521  and  _522
REMARK  218  A    between atoms: _521  and  _524
REMARK  219  A    between atoms: _524  and  _525
REMARK  220  A    between atoms: _525  and  _526
REMARK  221  A    between atoms: _526  and  _527
REMARK  222  A    between atoms: _536  and  _538
REMARK  223  A    between atoms: _538  and  _539
REMARK  224  A    between atoms: _538  and  _541
REMARK  225  A    between atoms: _541  and  _542
REMARK  226  A    between atoms: _548  and  _549
REMARK  227  A    between atoms: _554  and  _556
REMARK  228  A    between atoms: _556  and  _557
REMARK  229  A    between atoms: _556  and  _559
REMARK  230  A    between atoms: _559  and  _560
REMARK  231  A    between atoms: _560  and  _561
REMARK  232  A    between atoms: _563  and  _565
REMARK  233  A    between atoms: _565  and  _566
REMARK  234  A    between atoms: _565  and  _568
REMARK  235  A    between atoms: _571  and  _573
REMARK  236  A    between atoms: _573  and  _574
REMARK  237  A    between atoms: _577  and  _579
REMARK  238  A    between atoms: _579  and  _580
REMARK  239  A    between atoms: _579  and  _582
REMARK  240  A    between atoms: _582  and  _583
REMARK  241  A    between atoms: _586  and  _588
REMARK  242  A    between atoms: _588  and  _589
REMARK  243  A    between atoms: _588  and  _591
REMARK  244  A    between atoms: _591  and  _592
REMARK  245  A    between atoms: _592  and  _593
REMARK  246  A    between atoms: _598  and  _600
REMARK  247  A    between atoms: _600  and  _601
REMARK  248  A    between atoms: _600  and  _603
REMARK  249  A    between atoms: _603  and  _604
REMARK  250  A    between atoms: _607  and  _609
REMARK  251  A    between atoms: _609  and  _610
REMARK  252  A    between atoms: _609  and  _612
REMARK  253  A    between atoms: _614  and  _616
REMARK  254  A    between atoms: _616  and  _617
REMARK  255  A    between atoms: _616  and  _619
REMARK  256  A    between atoms: _619  and  _620
REMARK  257  A    between atoms: _620  and  _621
REMARK  258  A    between atoms: _624  and  _626
REMARK  259  A    between atoms: _626  and  _627
REMARK  260  A    between atoms: _626  and  _629
REMARK  261  A    between atoms: _629  and  _630
REMARK  262  A    between atoms: _630  and  _631
REMARK  263  A    between atoms: _631  and  _632
REMARK  264  A    between atoms: _632  and  _633
REMARK  265  A    between atoms: _637  and  _639
REMARK  266  A    between atoms: _639  and  _640
REMARK  267  A    between atoms: _639  and  _642
REMARK  268  A    between atoms: _642  and  _643
REMARK  269  A    between atoms: _648  and  _650
REMARK  270  A    between atoms: _650  and  _651
REMARK  271  A    between atoms: _650  and  _653
REMARK  272  A    between atoms: _653  and  _654
REMARK  273  A    between atoms: _659  and  _660
REMARK  274  A    between atoms: _662  and  _664
REMARK  275  A    between atoms: _664  and  _665
REMARK  276  A    between atoms: _664  and  _667
REMARK  277  A    between atoms: _667  and  _668
REMARK  278  A    between atoms: _668  and  _669
REMARK  279  A    between atoms: _669  and  _670
REMARK                            x       y       z     vdW  Elec       q    Type
REMARK                         _______ _______ _______ _____ _____    ______ ____
ROOT
ATOM      1  O   HOH     1       9.967  -0.839  20.452  0.00  0.00    +0.000 OA
ENDROOT
TORSDOF 0
REMARK  Name = ../refined-set-2016/3t8v/3t8v_pocket.pdb
REMARK  279 active torsions:
REMARK  status: ('A' for Active; 'I' for Inactive)
REMARK    1  A    between atoms: _1  and  _3
REMARK    2  A    between atoms: _3  and  _4
REMARK    3  A    between atoms: _7  and  _9
REMARK    4  A    between atoms: _9  and  _10
REMARK    5  A    between atoms: _9  and  _12
REMARK    6  A    between atoms: _12  and  _13
REMARK    7  A    between atoms: _16  and  _18
REMARK    8  A    between atoms: _18  and  _19
REMARK    9  A    between atoms: _18  and  _21
REMARK   10  A    between atoms: _21  and  _22
REMARK   11  A    between atoms: _25  and  _27
REMARK   12  A    between atoms: _27  and  _28
REMARK   13  A    between atoms: _27  and  _30
REMARK   14  A    between atoms: _30  and  _31
REMARK   15  A    between atoms: _31  and  _32
REMARK   16  A    between atoms: _37  and  _39
REMARK   17  A    between atoms: _39  and  _40
REMARK   18  A    between atoms: _39  and  _42
REMARK   19  A    between atoms: _44  and  _46
REMARK   20  A    between atoms: _46  and  _47
REMARK   21  A    between atoms: _46  and  _49
REMARK   22  A    between atoms: _49  and  _50
REMARK   23  A    between atoms: _50  and  _51
REMARK   24  A    between atoms: _54  and  _56
REMARK   25  A    between atoms: _56  and  _57
REMARK   26  A    between atoms: _60  and  _62
REMARK   27  A    between atoms: _62  and  _63
REMARK   28  A    between atoms: _62  and  _65
REMARK   29  A    between atoms: _65  and  _66
REMARK   30  A    between atoms: _69  and  _71
REMARK   31  A    between atoms: _71  and  _72
REMARK   32  A    between atoms: _74  and  _76
REMARK   33  A    between atoms: _76  and  _77
REMARK   34  A    between atoms: _76  and  _79
REMARK   35  A    between atoms: _79  and  _80
REMARK   36  A    between atoms: _85  and  _86
REMARK   37  A    between atoms: _88  and  _90
REMARK   38  A    between atoms: _90  and  _91
REMARK   39  A    between atoms: _90  and  _93
REMARK   40  A    between atoms: _93  and  _94
REMARK   41  A    between atoms: _100  and  _102
REMARK   42  A    between atoms: _102  and  _103
REMARK   43  A    between atoms: _102  and  _105
REMARK   44  A    between atoms: _105  and  _106
REMARK   45  A    between atoms: _111  and  _113
REMARK   46  A    between atoms: _113  and  _114
REMARK   47  A    between atoms: _113  and  _116
REMARK   48  A    between atoms: _119  and  _121
REMARK   49  A    between atoms: _121  and  _122
REMARK   50  A    between atoms: _124  and  _126
REMARK   51  A    between atoms: _126  and  _127
REMARK   52  A    between atoms: _130  and  _132
REMARK   53  A    between atoms: _132  and  _133
REMARK   54  A    between atoms: _132  and  _135
REMARK   55  A    between atoms: _135  and  _136
REMARK   56  A    between atoms: _136  and  _137
REMARK   57  A    between atoms: _139  and  _141
REMARK   58  A    between atoms: _141  and  _142
REMARK   59  A    between atoms: _141  and  _144
REMARK   60  A    between atoms: _144  and  _145
REMARK   61  A    between atoms: _145  and  _146
REMARK   62  A    between atoms: _149  and  _151
REMARK   63  A    between atoms: _151  and  _152
REMARK   64  A    between atoms: _151  and  _154
REMARK   65  A    between atoms: _154  and  _155
REMARK   66  A    between atoms: _160  and  _162
REMARK   67  A    between atoms: _162  and  _163
REMARK   68  A    between atoms: _162  and  _165
REMARK   69  A    between atoms: _165  and  _166
REMARK   70  A    between atoms: _169  and  _171
REMARK   71  A    between atoms: _171  and  _172
REMARK   72  A    between atoms: _171  and  _174
REMARK   73  A    between atoms: _174  and  _175
REMARK   74  A    between atoms: _181  and  _183
REMARK   75  A    between atoms: _183  and  _184
REMARK   76  A    between atoms: _183  and  _186
REMARK   77  A    between atoms: _186  and  _187
REMARK   78  A    between atoms: _192  and  _194
REMARK   79  A    between atoms: _194  and  _195
REMARK   80  A    between atoms: _194  and  _197
REMARK   81  A    between atoms: _197  and  _198
REMARK   82  A    between atoms: _203  and  _205
REMARK   83  A    between atoms: _205  and  _206
REMARK   84  A    between atoms: _205  and  _208
REMARK   85  A    between atoms: _208  and  _209
REMARK   86  A    between atoms: _211  and  _213
REMARK   87  A    between atoms: _213  and  _214
REMARK   88  A    between atoms: _213  and  _216
REMARK   89  A    between atoms: _216  and  _217
REMARK   90  A    between atoms: _217  and  _218
REMARK   91  A    between atoms: _218  and  _219
REMARK   92  A    between atoms: _228  and  _230
REMARK   93  A    between atoms: _230  and  _231
REMARK   94  A    between atoms: _230  and  _233
REMARK   95  A    between atoms: _233  and  _234
REMARK   96  A    between atoms: _237  and  _239
REMARK   97  A    between atoms: _239  and  _240
REMARK   98  A    between atoms: _239  and  _242
REMARK   99  A    between atoms: _245  and  _247
REMARK  100  A    between atoms: _247  and  _248
REMARK  101  A    between atoms: _247  and  _250
REMARK  102  A    between atoms: _253  and  _255
REMARK  103  A    between atoms: _255  and  _256
REMARK  104  A    between atoms: _258  and  _260
REMARK  105  A    between atoms: _260  and  _261
REMARK  106  A    between atoms: _260  and  _263
REMARK  107  A    between atoms: _263  and  _264
REMARK  108  A    between atoms: _268  and  ZN_679
REMARK  109  A    between atoms: _269  and  _271
REMARK  110  A    between atoms: _271  and  _272
REMARK  111  A    between atoms: _271  and  _274
REMARK  112  A    between atoms: _274  and  _275
REMARK  113  A    between atoms: _275  and  _276
REMARK  114  A    between atoms: _279  and  _281
REMARK  115  A    between atoms: _281  and  _282
REMARK  116  A    between atoms: _281  and  _284
REMARK  117  A    between atoms: _284  and  _285
REMARK  118  A    between atoms: _290  and  _291
REMARK  119  A    between atoms: _293  and  _295
REMARK  120  A    between atoms: _295  and  _296
REMARK  121  A    between atoms: _295  and  _298
REMARK  122  A    between atoms: _298  and  _299
REMARK  123  A    between atoms: _303  and  ZN_679
REMARK  124  A    between atoms: _304  and  _306
REMARK  125  A    between atoms: _306  and  _307
REMARK  126  A    between atoms: _306  and  _309
REMARK  127  A    between atoms: _309  and  _310
REMARK  128  A    between atoms: _320  and  _322
REMARK  129  A    between atoms: _322  and  _323
REMARK  130  A    between atoms: _322  and  _325
REMARK  131  A    between atoms: _325  and  _326
REMARK  132  A    between atoms: _329  and  _331
REMARK  133  A    between atoms: _331  and  _332
REMARK  134  A    between atoms: _331  and  _334
REMARK  135  A    between atoms: _334  and  _335
REMARK  136  A    between atoms: _335  and  _336
REMARK  137  A    between atoms: _336  and  _337
REMARK  138  A    between atoms: _337  and  _338
REMARK  139  A    between atoms: _342  and  _344
REMARK  140  A    between atoms: _344  and  _345
REMARK  141  A    between atoms: _344  and  _347
REMARK  142  A    between atoms: _347  and  _348
REMARK  143  A    between atoms: _348  and  _349
REMARK  144  A    between atoms: _349  and  _350
REMARK  145  A    between atoms: _350  and  ZN_679
REMARK  146  A    between atoms: _352  and  _354
REMARK  147  A    between atoms: _354  and  _355
REMARK  148  A    between atoms: _354  and  _357
REMARK  149  A    between atoms: _357  and  _358
REMARK  150  A    between atoms: _361  and  _363
REMARK  151  A    between atoms: _363  and  _364
REMARK  152  A    between atoms: _363  and  _366
REMARK  153  A    between atoms: _369  and  _371
REMARK  154  A    between atoms: _371  and  _372
REMARK  155  A    between atoms: _371  and  _374
REMARK  156  A    between atoms: _374  and  _375
REMARK  157  A    between atoms: _375  and  _376
REMARK  158  A    between atoms: _379  and  _381
REMARK  159  A    between atoms: _381  and  _382
REMARK  160  A    between atoms: _381  and  _384
REMARK  161  A    between atoms: _384  and  _385
REMARK  162  A    between atoms: _385  and  _386
REMARK  163  A    between atoms: _389  and  _391
REMARK  164  A    between atoms: _391  and  _392
REMARK  165  A    between atoms: _391  and  _394
REMARK  166  A    between atoms: _394  and  _395
REMARK  167  A    between atoms: _398  and  _400
REMARK  168  A    between atoms: _400  and  _401
REMARK  169  A    between atoms: _400  and  _403
REMARK  170  A    between atoms: _403  and  _404
REMARK  171  A    between atoms: _409  and  _411
REMARK  172  A    between atoms: _411  and  _412
REMARK  173  A    between atoms: _411  and  _414
REMARK  174  A    between atoms: _414  and  _415
REMARK  175  A    between atoms: _417  and  _419
REMARK  176  A    between atoms: _419  and  _420
REMARK  177  A    between atoms: _419  and  _422
REMARK  178  A    between atoms: _422  and  _423
REMARK  179  A    between atoms: _423  and  _424
REMARK  180  A    between atoms: _426  and  _428
REMARK  181  A    between atoms: _428  and  _429
REMARK  182  A    between atoms: _432  and  _434
REMARK  183  A    between atoms: _434  and  _435
REMARK  184  A    between atoms: _434  and  _437
REMARK  185  A    between atoms: _437  and  _438
REMARK  186  A    between atoms: _443  and  _445
REMARK  187  A    between atoms: _445  and  _446
REMARK  188  A    between atoms: _445  and  _448
REMARK  189  A    between atoms: _448  and  _449
REMARK  190  A    between atoms: _455  and  _457
REMARK  191  A    between atoms: _457  and  _458
REMARK  192  A    between atoms: _457  and  _460
REMARK  193  A    between atoms: _460  and  _461
REMARK  194  A    between atoms: _466  and  _467
REMARK  195  A    between atoms: _469  and  _471
REMARK  196  A    between atoms: _471  and  _472
REMARK  197  A    between atoms: _471  and  _474
REMARK  198  A    between atoms: _474  and  _475
REMARK  199  A    between atoms: _478  and  _480
REMARK  200  A    between atoms: _480  and  _481
REMARK  201  A    between atoms: _480  and  _483
REMARK  202  A    between atoms: _483  and  _484
REMARK  203  A    between atoms: _487  and  _489
REMARK  204  A    between atoms: _489  and  _490
REMARK  205  A    between atoms: _489  and  _492
REMARK  206  A    between atoms: _492  and  _493
REMARK  207  A    between atoms: _496  and  _498
REMARK  208  A    between atoms: _498  and  _499
REMARK  209  A    between atoms: _498  and  _501
REMARK  210  A    between atoms: _501  and  _502
REMARK  211  A    between atoms: _507  and  _508
REMARK  212  A    between atoms: _510  and  _512
REMARK  213  A    between atoms: _512  and  _513
REMARK  214  A    between atoms: _512  and  _515
REMARK  215  A    between atoms: _515  and  _516
REMARK  216  A    between atoms: _519  and  _521
REMARK  217  A    between atoms: _521  and  _522
REMARK  218  A    between atoms: _521  and  _524
REMARK  219  A    between atoms: _524  and  _525
REMARK  220  A    between atoms: _525  and  _526
REMARK  221  A    between atoms: _526  and  _527
REMARK  222  A    between atoms: _536  and  _538
REMARK  223  A    between atoms: _538  and  _539
REMARK  224  A    between atoms: _538  and  _541
REMARK  225  A    between atoms: _541  and  _542
REMARK  226  A    between atoms: _548  and  _549
REMARK  227  A    between atoms: _554  and  _556
REMARK  228  A    between atoms: _556  and  _557
REMARK  229  A    between atoms: _556  and  _559
REMARK  230  A    between atoms: _559  and  _560
REMARK  231  A    between atoms: _560  and  _561
REMARK  232  A    between atoms: _563  and  _565
REMARK  233  A    between atoms: _565  and  _566
REMARK  234  A    between atoms: _565  and  _568
REMARK  235  A    between atoms: _571  and  _573
REMARK  236  A    between atoms: _573  and  _574
REMARK  237  A    between atoms: _577  and  _579
REMARK  238  A    between atoms: _579  and  _580
REMARK  239  A    between atoms: _579  and  _582
REMARK  240  A    between atoms: _582  and  _583
REMARK  241  A    between atoms: _586  and  _588
REMARK  242  A    between atoms: _588  and  _589
REMARK  243  A    between atoms: _588  and  _591
REMARK  244  A    between atoms: _591  and  _592
REMARK  245  A    between atoms: _592  and  _593
REMARK  246  A    between atoms: _598  and  _600
REMARK  247  A    between atoms: _600  and  _601
REMARK  248  A    between atoms: _600  and  _603
REMARK  249  A    between atoms: _603  and  _604
REMARK  250  A    between atoms: _607  and  _609
REMARK  251  A    between atoms: _609  and  _610
REMARK  252  A    between atoms: _609  and  _612
REMARK  253  A    between atoms: _614  and  _616
REMARK  254  A    between atoms: _616  and  _617
REMARK  255  A    between atoms: _616  and  _619
REMARK  256  A    between atoms: _619  and  _620
REMARK  257  A    between atoms: _620  and  _621
REMARK  258  A    between atoms: _624  and  _626
REMARK  259  A    between atoms: _626  and  _627
REMARK  260  A    between atoms: _626  and  _629
REMARK  261  A    between atoms: _629  and  _630
REMARK  262  A    between atoms: _630  and  _631
REMARK  263  A    between atoms: _631  and  _632
REMARK  264  A    between atoms: _632  and  _633
REMARK  265  A    between atoms: _637  and  _639
REMARK  266  A    between atoms: _639  and  _640
REMARK  267  A    between atoms: _639  and  _642
REMARK  268  A    between atoms: _642  and  _643
REMARK  269  A    between atoms: _648  and  _650
REMARK  270  A    between atoms: _650  and  _651
REMARK  271  A    between atoms: _650  and  _653
REMARK  272  A    between atoms: _653  and  _654
REMARK  273  A    between atoms: _659  and  _660
REMARK  274  A    between atoms: _662  and  _664
REMARK  275  A    between atoms: _664  and  _665
REMARK  276  A    between atoms: _664  and  _667
REMARK  277  A    between atoms: _667  and  _668
REMARK  278  A    between atoms: _668  and  _669
REMARK  279  A    between atoms: _669  and  _670
REMARK                            x       y       z     vdW  Elec       q    Type
REMARK                         _______ _______ _______ _____ _____    ______ ____
ROOT
ATOM      1  O   HOH     1      21.706  -0.881  17.738  0.00  0.00    +0.000 OA
ENDROOT
TORSDOF 0
REMARK  Name = ../refined-set-2016/3t8v/3t8v_pocket.pdb
REMARK  279 active torsions:
REMARK  status: ('A' for Active; 'I' for Inactive)
REMARK    1  A    between atoms: _1  and  _3
REMARK    2  A    between atoms: _3  and  _4
REMARK    3  A    between atoms: _7  and  _9
REMARK    4  A    between atoms: _9  and  _10
REMARK    5  A    between atoms: _9  and  _12
REMARK    6  A    between atoms: _12  and  _13
REMARK    7  A    between atoms: _16  and  _18
REMARK    8  A    between atoms: _18  and  _19
REMARK    9  A    between atoms: _18  and  _21
REMARK   10  A    between atoms: _21  and  _22
REMARK   11  A    between atoms: _25  and  _27
REMARK   12  A    between atoms: _27  and  _28
REMARK   13  A    between atoms: _27  and  _30
REMARK   14  A    between atoms: _30  and  _31
REMARK   15  A    between atoms: _31  and  _32
REMARK   16  A    between atoms: _37  and  _39
REMARK   17  A    between atoms: _39  and  _40
REMARK   18  A    between atoms: _39  and  _42
REMARK   19  A    between atoms: _44  and  _46
REMARK   20  A    between atoms: _46  and  _47
REMARK   21  A    between atoms: _46  and  _49
REMARK   22  A    between atoms: _49  and  _50
REMARK   23  A    between atoms: _50  and  _51
REMARK   24  A    between atoms: _54  and  _56
REMARK   25  A    between atoms: _56  and  _57
REMARK   26  A    between atoms: _60  and  _62
REMARK   27  A    between atoms: _62  and  _63
REMARK   28  A    between atoms: _62  and  _65
REMARK   29  A    between atoms: _65  and  _66
REMARK   30  A    between atoms: _69  and  _71
REMARK   31  A    between atoms: _71  and  _72
REMARK   32  A    between atoms: _74  and  _76
REMARK   33  A    between atoms: _76  and  _77
REMARK   34  A    between atoms: _76  and  _79
REMARK   35  A    between atoms: _79  and  _80
REMARK   36  A    between atoms: _85  and  _86
REMARK   37  A    between atoms: _88  and  _90
REMARK   38  A    between atoms: _90  and  _91
REMARK   39  A    between atoms: _90  and  _93
REMARK   40  A    between atoms: _93  and  _94
REMARK   41  A    between atoms: _100  and  _102
REMARK   42  A    between atoms: _102  and  _103
REMARK   43  A    between atoms: _102  and  _105
REMARK   44  A    between atoms: _105  and  _106
REMARK   45  A    between atoms: _111  and  _113
REMARK   46  A    between atoms: _113  and  _114
REMARK   47  A    between atoms: _113  and  _116
REMARK   48  A    between atoms: _119  and  _121
REMARK   49  A    between atoms: _121  and  _122
REMARK   50  A    between atoms: _124  and  _126
REMARK   51  A    between atoms: _126  and  _127
REMARK   52  A    between atoms: _130  and  _132
REMARK   53  A    between atoms: _132  and  _133
REMARK   54  A    between atoms: _132  and  _135
REMARK   55  A    between atoms: _135  and  _136
REMARK   56  A    between atoms: _136  and  _137
REMARK   57  A    between atoms: _139  and  _141
REMARK   58  A    between atoms: _141  and  _142
REMARK   59  A    between atoms: _141  and  _144
REMARK   60  A    between atoms: _144  and  _145
REMARK   61  A    between atoms: _145  and  _146
REMARK   62  A    between atoms: _149  and  _151
REMARK   63  A    between atoms: _151  and  _152
REMARK   64  A    between atoms: _151  and  _154
REMARK   65  A    between atoms: _154  and  _155
REMARK   66  A    between atoms: _160  and  _162
REMARK   67  A    between atoms: _162  and  _163
REMARK   68  A    between atoms: _162  and  _165
REMARK   69  A    between atoms: _165  and  _166
REMARK   70  A    between atoms: _169  and  _171
REMARK   71  A    between atoms: _171  and  _172
REMARK   72  A    between atoms: _171  and  _174
REMARK   73  A    between atoms: _174  and  _175
REMARK   74  A    between atoms: _181  and  _183
REMARK   75  A    between atoms: _183  and  _184
REMARK   76  A    between atoms: _183  and  _186
REMARK   77  A    between atoms: _186  and  _187
REMARK   78  A    between atoms: _192  and  _194
REMARK   79  A    between atoms: _194  and  _195
REMARK   80  A    between atoms: _194  and  _197
REMARK   81  A    between atoms: _197  and  _198
REMARK   82  A    between atoms: _203  and  _205
REMARK   83  A    between atoms: _205  and  _206
REMARK   84  A    between atoms: _205  and  _208
REMARK   85  A    between atoms: _208  and  _209
REMARK   86  A    between atoms: _211  and  _213
REMARK   87  A    between atoms: _213  and  _214
REMARK   88  A    between atoms: _213  and  _216
REMARK   89  A    between atoms: _216  and  _217
REMARK   90  A    between atoms: _217  and  _218
REMARK   91  A    between atoms: _218  and  _219
REMARK   92  A    between atoms: _228  and  _230
REMARK   93  A    between atoms: _230  and  _231
REMARK   94  A    between atoms: _230  and  _233
REMARK   95  A    between atoms: _233  and  _234
REMARK   96  A    between atoms: _237  and  _239
REMARK   97  A    between atoms: _239  and  _240
REMARK   98  A    between atoms: _239  and  _242
REMARK   99  A    between atoms: _245  and  _247
REMARK  100  A    between atoms: _247  and  _248
REMARK  101  A    between atoms: _247  and  _250
REMARK  102  A    between atoms: _253  and  _255
REMARK  103  A    between atoms: _255  and  _256
REMARK  104  A    between atoms: _258  and  _260
REMARK  105  A    between atoms: _260  and  _261
REMARK  106  A    between atoms: _260  and  _263
REMARK  107  A    between atoms: _263  and  _264
REMARK  108  A    between atoms: _268  and  ZN_679
REMARK  109  A    between atoms: _269  and  _271
REMARK  110  A    between atoms: _271  and  _272
REMARK  111  A    between atoms: _271  and  _274
REMARK  112  A    between atoms: _274  and  _275
REMARK  113  A    between atoms: _275  and  _276
REMARK  114  A    between atoms: _279  and  _281
REMARK  115  A    between atoms: _281  and  _282
REMARK  116  A    between atoms: _281  and  _284
REMARK  117  A    between atoms: _284  and  _285
REMARK  118  A    between atoms: _290  and  _291
REMARK  119  A    between atoms: _293  and  _295
REMARK  120  A    between atoms: _295  and  _296
REMARK  121  A    between atoms: _295  and  _298
REMARK  122  A    between atoms: _298  and  _299
REMARK  123  A    between atoms: _303  and  ZN_679
REMARK  124  A    between atoms: _304  and  _306
REMARK  125  A    between atoms: _306  and  _307
REMARK  126  A    between atoms: _306  and  _309
REMARK  127  A    between atoms: _309  and  _310
REMARK  128  A    between atoms: _320  and  _322
REMARK  129  A    between atoms: _322  and  _323
REMARK  130  A    between atoms: _322  and  _325
REMARK  131  A    between atoms: _325  and  _326
REMARK  132  A    between atoms: _329  and  _331
REMARK  133  A    between atoms: _331  and  _332
REMARK  134  A    between atoms: _331  and  _334
REMARK  135  A    between atoms: _334  and  _335
REMARK  136  A    between atoms: _335  and  _336
REMARK  137  A    between atoms: _336  and  _337
REMARK  138  A    between atoms: _337  and  _338
REMARK  139  A    between atoms: _342  and  _344
REMARK  140  A    between atoms: _344  and  _345
REMARK  141  A    between atoms: _344  and  _347
REMARK  142  A    between atoms: _347  and  _348
REMARK  143  A    between atoms: _348  and  _349
REMARK  144  A    between atoms: _349  and  _350
REMARK  145  A    between atoms: _350  and  ZN_679
REMARK  146  A    between atoms: _352  and  _354
REMARK  147  A    between atoms: _354  and  _355
REMARK  148  A    between atoms: _354  and  _357
REMARK  149  A    between atoms: _357  and  _358
REMARK  150  A    between atoms: _361  and  _363
REMARK  151  A    between atoms: _363  and  _364
REMARK  152  A    between atoms: _363  and  _366
REMARK  153  A    between atoms: _369  and  _371
REMARK  154  A    between atoms: _371  and  _372
REMARK  155  A    between atoms: _371  and  _374
REMARK  156  A    between atoms: _374  and  _375
REMARK  157  A    between atoms: _375  and  _376
REMARK  158  A    between atoms: _379  and  _381
REMARK  159  A    between atoms: _381  and  _382
REMARK  160  A    between atoms: _381  and  _384
REMARK  161  A    between atoms: _384  and  _385
REMARK  162  A    between atoms: _385  and  _386
REMARK  163  A    between atoms: _389  and  _391
REMARK  164  A    between atoms: _391  and  _392
REMARK  165  A    between atoms: _391  and  _394
REMARK  166  A    between atoms: _394  and  _395
REMARK  167  A    between atoms: _398  and  _400
REMARK  168  A    between atoms: _400  and  _401
REMARK  169  A    between atoms: _400  and  _403
REMARK  170  A    between atoms: _403  and  _404
REMARK  171  A    between atoms: _409  and  _411
REMARK  172  A    between atoms: _411  and  _412
REMARK  173  A    between atoms: _411  and  _414
REMARK  174  A    between atoms: _414  and  _415
REMARK  175  A    between atoms: _417  and  _419
REMARK  176  A    between atoms: _419  and  _420
REMARK  177  A    between atoms: _419  and  _422
REMARK  178  A    between atoms: _422  and  _423
REMARK  179  A    between atoms: _423  and  _424
REMARK  180  A    between atoms: _426  and  _428
REMARK  181  A    between atoms: _428  and  _429
REMARK  182  A    between atoms: _432  and  _434
REMARK  183  A    between atoms: _434  and  _435
REMARK  184  A    between atoms: _434  and  _437
REMARK  185  A    between atoms: _437  and  _438
REMARK  186  A    between atoms: _443  and  _445
REMARK  187  A    between atoms: _445  and  _446
REMARK  188  A    between atoms: _445  and  _448
REMARK  189  A    between atoms: _448  and  _449
REMARK  190  A    between atoms: _455  and  _457
REMARK  191  A    between atoms: _457  and  _458
REMARK  192  A    between atoms: _457  and  _460
REMARK  193  A    between atoms: _460  and  _461
REMARK  194  A    between atoms: _466  and  _467
REMARK  195  A    between atoms: _469  and  _471
REMARK  196  A    between atoms: _471  and  _472
REMARK  197  A    between atoms: _471  and  _474
REMARK  198  A    between atoms: _474  and  _475
REMARK  199  A    between atoms: _478  and  _480
REMARK  200  A    between atoms: _480  and  _481
REMARK  201  A    between atoms: _480  and  _483
REMARK  202  A    between atoms: _483  and  _484
REMARK  203  A    between atoms: _487  and  _489
REMARK  204  A    between atoms: _489  and  _490
REMARK  205  A    between atoms: _489  and  _492
REMARK  206  A    between atoms: _492  and  _493
REMARK  207  A    between atoms: _496  and  _498
REMARK  208  A    between atoms: _498  and  _499
REMARK  209  A    between atoms: _498  and  _501
REMARK  210  A    between atoms: _501  and  _502
REMARK  211  A    between atoms: _507  and  _508
REMARK  212  A    between atoms: _510  and  _512
REMARK  213  A    between atoms: _512  and  _513
REMARK  214  A    between atoms: _512  and  _515
REMARK  215  A    between atoms: _515  and  _516
REMARK  216  A    between atoms: _519  and  _521
REMARK  217  A    between atoms: _521  and  _522
REMARK  218  A    between atoms: _521  and  _524
REMARK  219  A    between atoms: _524  and  _525
REMARK  220  A    between atoms: _525  and  _526
REMARK  221  A    between atoms: _526  and  _527
REMARK  222  A    between atoms: _536  and  _538
REMARK  223  A    between atoms: _538  and  _539
REMARK  224  A    between atoms: _538  and  _541
REMARK  225  A    between atoms: _541  and  _542
REMARK  226  A    between atoms: _548  and  _549
REMARK  227  A    between atoms: _554  and  _556
REMARK  228  A    between atoms: _556  and  _557
REMARK  229  A    between atoms: _556  and  _559
REMARK  230  A    between atoms: _559  and  _560
REMARK  231  A    between atoms: _560  and  _561
REMARK  232  A    between atoms: _563  and  _565
REMARK  233  A    between atoms: _565  and  _566
REMARK  234  A    between atoms: _565  and  _568
REMARK  235  A    between atoms: _571  and  _573
REMARK  236  A    between atoms: _573  and  _574
REMARK  237  A    between atoms: _577  and  _579
REMARK  238  A    between atoms: _579  and  _580
REMARK  239  A    between atoms: _579  and  _582
REMARK  240  A    between atoms: _582  and  _583
REMARK  241  A    between atoms: _586  and  _588
REMARK  242  A    between atoms: _588  and  _589
REMARK  243  A    between atoms: _588  and  _591
REMARK  244  A    between atoms: _591  and  _592
REMARK  245  A    between atoms: _592  and  _593
REMARK  246  A    between atoms: _598  and  _600
REMARK  247  A    between atoms: _600  and  _601
REMARK  248  A    between atoms: _600  and  _603
REMARK  249  A    between atoms: _603  and  _604
REMARK  250  A    between atoms: _607  and  _609
REMARK  251  A    between atoms: _609  and  _610
REMARK  252  A    between atoms: _609  and  _612
REMARK  253  A    between atoms: _614  and  _616
REMARK  254  A    between atoms: _616  and  _617
REMARK  255  A    between atoms: _616  and  _619
REMARK  256  A    between atoms: _619  and  _620
REMARK  257  A    between atoms: _620  and  _621
REMARK  258  A    between atoms: _624  and  _626
REMARK  259  A    between atoms: _626  and  _627
REMARK  260  A    between atoms: _626  and  _629
REMARK  261  A    between atoms: _629  and  _630
REMARK  262  A    between atoms: _630  and  _631
REMARK  263  A    between atoms: _631  and  _632
REMARK  264  A    between atoms: _632  and  _633
REMARK  265  A    between atoms: _637  and  _639
REMARK  266  A    between atoms: _639  and  _640
REMARK  267  A    between atoms: _639  and  _642
REMARK  268  A    between atoms: _642  and  _643
REMARK  269  A    between atoms: _648  and  _650
REMARK  270  A    between atoms: _650  and  _651
REMARK  271  A    between atoms: _650  and  _653
REMARK  272  A    between atoms: _653  and  _654
REMARK  273  A    between atoms: _659  and  _660
REMARK  274  A    between atoms: _662  and  _664
REMARK  275  A    between atoms: _664  and  _665
REMARK  276  A    between atoms: _664  and  _667
REMARK  277  A    between atoms: _667  and  _668
REMARK  278  A    between atoms: _668  and  _669
REMARK  279  A    between atoms: _669  and  _670
REMARK                            x       y       z     vdW  Elec       q    Type
REMARK                         _______ _______ _______ _____ _____    ______ ____
ROOT
ATOM      1  O   HOH     1      17.843   4.607   6.471  0.00  0.00    +0.000 OA
ENDROOT
TORSDOF 0
REMARK  Name = ../refined-set-2016/3t8v/3t8v_pocket.pdb
REMARK  279 active torsions:
REMARK  status: ('A' for Active; 'I' for Inactive)
REMARK    1  A    between atoms: _1  and  _3
REMARK    2  A    between atoms: _3  and  _4
REMARK    3  A    between atoms: _7  and  _9
REMARK    4  A    between atoms: _9  and  _10
REMARK    5  A    between atoms: _9  and  _12
REMARK    6  A    between atoms: _12  and  _13
REMARK    7  A    between atoms: _16  and  _18
REMARK    8  A    between atoms: _18  and  _19
REMARK    9  A    between atoms: _18  and  _21
REMARK   10  A    between atoms: _21  and  _22
REMARK   11  A    between atoms: _25  and  _27
REMARK   12  A    between atoms: _27  and  _28
REMARK   13  A    between atoms: _27  and  _30
REMARK   14  A    between atoms: _30  and  _31
REMARK   15  A    between atoms: _31  and  _32
REMARK   16  A    between atoms: _37  and  _39
REMARK   17  A    between atoms: _39  and  _40
REMARK   18  A    between atoms: _39  and  _42
REMARK   19  A    between atoms: _44  and  _46
REMARK   20  A    between atoms: _46  and  _47
REMARK   21  A    between atoms: _46  and  _49
REMARK   22  A    between atoms: _49  and  _50
REMARK   23  A    between atoms: _50  and  _51
REMARK   24  A    between atoms: _54  and  _56
REMARK   25  A    between atoms: _56  and  _57
REMARK   26  A    between atoms: _60  and  _62
REMARK   27  A    between atoms: _62  and  _63
REMARK   28  A    between atoms: _62  and  _65
REMARK   29  A    between atoms: _65  and  _66
REMARK   30  A    between atoms: _69  and  _71
REMARK   31  A    between atoms: _71  and  _72
REMARK   32  A    between atoms: _74  and  _76
REMARK   33  A    between atoms: _76  and  _77
REMARK   34  A    between atoms: _76  and  _79
REMARK   35  A    between atoms: _79  and  _80
REMARK   36  A    between atoms: _85  and  _86
REMARK   37  A    between atoms: _88  and  _90
REMARK   38  A    between atoms: _90  and  _91
REMARK   39  A    between atoms: _90  and  _93
REMARK   40  A    between atoms: _93  and  _94
REMARK   41  A    between atoms: _100  and  _102
REMARK   42  A    between atoms: _102  and  _103
REMARK   43  A    between atoms: _102  and  _105
REMARK   44  A    between atoms: _105  and  _106
REMARK   45  A    between atoms: _111  and  _113
REMARK   46  A    between atoms: _113  and  _114
REMARK   47  A    between atoms: _113  and  _116
REMARK   48  A    between atoms: _119  and  _121
REMARK   49  A    between atoms: _121  and  _122
REMARK   50  A    between atoms: _124  and  _126
REMARK   51  A    between atoms: _126  and  _127
REMARK   52  A    between atoms: _130  and  _132
REMARK   53  A    between atoms: _132  and  _133
REMARK   54  A    between atoms: _132  and  _135
REMARK   55  A    between atoms: _135  and  _136
REMARK   56  A    between atoms: _136  and  _137
REMARK   57  A    between atoms: _139  and  _141
REMARK   58  A    between atoms: _141  and  _142
REMARK   59  A    between atoms: _141  and  _144
REMARK   60  A    between atoms: _144  and  _145
REMARK   61  A    between atoms: _145  and  _146
REMARK   62  A    between atoms: _149  and  _151
REMARK   63  A    between atoms: _151  and  _152
REMARK   64  A    between atoms: _151  and  _154
REMARK   65  A    between atoms: _154  and  _155
REMARK   66  A    between atoms: _160  and  _162
REMARK   67  A    between atoms: _162  and  _163
REMARK   68  A    between atoms: _162  and  _165
REMARK   69  A    between atoms: _165  and  _166
REMARK   70  A    between atoms: _169  and  _171
REMARK   71  A    between atoms: _171  and  _172
REMARK   72  A    between atoms: _171  and  _174
REMARK   73  A    between atoms: _174  and  _175
REMARK   74  A    between atoms: _181  and  _183
REMARK   75  A    between atoms: _183  and  _184
REMARK   76  A    between atoms: _183  and  _186
REMARK   77  A    between atoms: _186  and  _187
REMARK   78  A    between atoms: _192  and  _194
REMARK   79  A    between atoms: _194  and  _195
REMARK   80  A    between atoms: _194  and  _197
REMARK   81  A    between atoms: _197  and  _198
REMARK   82  A    between atoms: _203  and  _205
REMARK   83  A    between atoms: _205  and  _206
REMARK   84  A    between atoms: _205  and  _208
REMARK   85  A    between atoms: _208  and  _209
REMARK   86  A    between atoms: _211  and  _213
REMARK   87  A    between atoms: _213  and  _214
REMARK   88  A    between atoms: _213  and  _216
REMARK   89  A    between atoms: _216  and  _217
REMARK   90  A    between atoms: _217  and  _218
REMARK   91  A    between atoms: _218  and  _219
REMARK   92  A    between atoms: _228  and  _230
REMARK   93  A    between atoms: _230  and  _231
REMARK   94  A    between atoms: _230  and  _233
REMARK   95  A    between atoms: _233  and  _234
REMARK   96  A    between atoms: _237  and  _239
REMARK   97  A    between atoms: _239  and  _240
REMARK   98  A    between atoms: _239  and  _242
REMARK   99  A    between atoms: _245  and  _247
REMARK  100  A    between atoms: _247  and  _248
REMARK  101  A    between atoms: _247  and  _250
REMARK  102  A    between atoms: _253  and  _255
REMARK  103  A    between atoms: _255  and  _256
REMARK  104  A    between atoms: _258  and  _260
REMARK  105  A    between atoms: _260  and  _261
REMARK  106  A    between atoms: _260  and  _263
REMARK  107  A    between atoms: _263  and  _264
REMARK  108  A    between atoms: _268  and  ZN_679
REMARK  109  A    between atoms: _269  and  _271
REMARK  110  A    between atoms: _271  and  _272
REMARK  111  A    between atoms: _271  and  _274
REMARK  112  A    between atoms: _274  and  _275
REMARK  113  A    between atoms: _275  and  _276
REMARK  114  A    between atoms: _279  and  _281
REMARK  115  A    between atoms: _281  and  _282
REMARK  116  A    between atoms: _281  and  _284
REMARK  117  A    between atoms: _284  and  _285
REMARK  118  A    between atoms: _290  and  _291
REMARK  119  A    between atoms: _293  and  _295
REMARK  120  A    between atoms: _295  and  _296
REMARK  121  A    between atoms: _295  and  _298
REMARK  122  A    between atoms: _298  and  _299
REMARK  123  A    between atoms: _303  and  ZN_679
REMARK  124  A    between atoms: _304  and  _306
REMARK  125  A    between atoms: _306  and  _307
REMARK  126  A    between atoms: _306  and  _309
REMARK  127  A    between atoms: _309  and  _310
REMARK  128  A    between atoms: _320  and  _322
REMARK  129  A    between atoms: _322  and  _323
REMARK  130  A    between atoms: _322  and  _325
REMARK  131  A    between atoms: _325  and  _326
REMARK  132  A    between atoms: _329  and  _331
REMARK  133  A    between atoms: _331  and  _332
REMARK  134  A    between atoms: _331  and  _334
REMARK  135  A    between atoms: _334  and  _335
REMARK  136  A    between atoms: _335  and  _336
REMARK  137  A    between atoms: _336  and  _337
REMARK  138  A    between atoms: _337  and  _338
REMARK  139  A    between atoms: _342  and  _344
REMARK  140  A    between atoms: _344  and  _345
REMARK  141  A    between atoms: _344  and  _347
REMARK  142  A    between atoms: _347  and  _348
REMARK  143  A    between atoms: _348  and  _349
REMARK  144  A    between atoms: _349  and  _350
REMARK  145  A    between atoms: _350  and  ZN_679
REMARK  146  A    between atoms: _352  and  _354
REMARK  147  A    between atoms: _354  and  _355
REMARK  148  A    between atoms: _354  and  _357
REMARK  149  A    between atoms: _357  and  _358
REMARK  150  A    between atoms: _361  and  _363
REMARK  151  A    between atoms: _363  and  _364
REMARK  152  A    between atoms: _363  and  _366
REMARK  153  A    between atoms: _369  and  _371
REMARK  154  A    between atoms: _371  and  _372
REMARK  155  A    between atoms: _371  and  _374
REMARK  156  A    between atoms: _374  and  _375
REMARK  157  A    between atoms: _375  and  _376
REMARK  158  A    between atoms: _379  and  _381
REMARK  159  A    between atoms: _381  and  _382
REMARK  160  A    between atoms: _381  and  _384
REMARK  161  A    between atoms: _384  and  _385
REMARK  162  A    between atoms: _385  and  _386
REMARK  163  A    between atoms: _389  and  _391
REMARK  164  A    between atoms: _391  and  _392
REMARK  165  A    between atoms: _391  and  _394
REMARK  166  A    between atoms: _394  and  _395
REMARK  167  A    between atoms: _398  and  _400
REMARK  168  A    between atoms: _400  and  _401
REMARK  169  A    between atoms: _400  and  _403
REMARK  170  A    between atoms: _403  and  _404
REMARK  171  A    between atoms: _409  and  _411
REMARK  172  A    between atoms: _411  and  _412
REMARK  173  A    between atoms: _411  and  _414
REMARK  174  A    between atoms: _414  and  _415
REMARK  175  A    between atoms: _417  and  _419
REMARK  176  A    between atoms: _419  and  _420
REMARK  177  A    between atoms: _419  and  _422
REMARK  178  A    between atoms: _422  and  _423
REMARK  179  A    between atoms: _423  and  _424
REMARK  180  A    between atoms: _426  and  _428
REMARK  181  A    between atoms: _428  and  _429
REMARK  182  A    between atoms: _432  and  _434
REMARK  183  A    between atoms: _434  and  _435
REMARK  184  A    between atoms: _434  and  _437
REMARK  185  A    between atoms: _437  and  _438
REMARK  186  A    between atoms: _443  and  _445
REMARK  187  A    between atoms: _445  and  _446
REMARK  188  A    between atoms: _445  and  _448
REMARK  189  A    between atoms: _448  and  _449
REMARK  190  A    between atoms: _455  and  _457
REMARK  191  A    between atoms: _457  and  _458
REMARK  192  A    between atoms: _457  and  _460
REMARK  193  A    between atoms: _460  and  _461
REMARK  194  A    between atoms: _466  and  _467
REMARK  195  A    between atoms: _469  and  _471
REMARK  196  A    between atoms: _471  and  _472
REMARK  197  A    between atoms: _471  and  _474
REMARK  198  A    between atoms: _474  and  _475
REMARK  199  A    between atoms: _478  and  _480
REMARK  200  A    between atoms: _480  and  _481
REMARK  201  A    between atoms: _480  and  _483
REMARK  202  A    between atoms: _483  and  _484
REMARK  203  A    between atoms: _487  and  _489
REMARK  204  A    between atoms: _489  and  _490
REMARK  205  A    between atoms: _489  and  _492
REMARK  206  A    between atoms: _492  and  _493
REMARK  207  A    between atoms: _496  and  _498
REMARK  208  A    between atoms: _498  and  _499
REMARK  209  A    between atoms: _498  and  _501
REMARK  210  A    between atoms: _501  and  _502
REMARK  211  A    between atoms: _507  and  _508
REMARK  212  A    between atoms: _510  and  _512
REMARK  213  A    between atoms: _512  and  _513
REMARK  214  A    between atoms: _512  and  _515
REMARK  215  A    between atoms: _515  and  _516
REMARK  216  A    between atoms: _519  and  _521
REMARK  217  A    between atoms: _521  and  _522
REMARK  218  A    between atoms: _521  and  _524
REMARK  219  A    between atoms: _524  and  _525
REMARK  220  A    between atoms: _525  and  _526
REMARK  221  A    between atoms: _526  and  _527
REMARK  222  A    between atoms: _536  and  _538
REMARK  223  A    between atoms: _538  and  _539
REMARK  224  A    between atoms: _538  and  _541
REMARK  225  A    between atoms: _541  and  _542
REMARK  226  A    between atoms: _548  and  _549
REMARK  227  A    between atoms: _554  and  _556
REMARK  228  A    between atoms: _556  and  _557
REMARK  229  A    between atoms: _556  and  _559
REMARK  230  A    between atoms: _559  and  _560
REMARK  231  A    between atoms: _560  and  _561
REMARK  232  A    between atoms: _563  and  _565
REMARK  233  A    between atoms: _565  and  _566
REMARK  234  A    between atoms: _565  and  _568
REMARK  235  A    between atoms: _571  and  _573
REMARK  236  A    between atoms: _573  and  _574
REMARK  237  A    between atoms: _577  and  _579
REMARK  238  A    between atoms: _579  and  _580
REMARK  239  A    between atoms: _579  and  _582
REMARK  240  A    between atoms: _582  and  _583
REMARK  241  A    between atoms: _586  and  _588
REMARK  242  A    between atoms: _588  and  _589
REMARK  243  A    between atoms: _588  and  _591
REMARK  244  A    between atoms: _591  and  _592
REMARK  245  A    between atoms: _592  and  _593
REMARK  246  A    between atoms: _598  and  _600
REMARK  247  A    between atoms: _600  and  _601
REMARK  248  A    between atoms: _600  and  _603
REMARK  249  A    between atoms: _603  and  _604
REMARK  250  A    between atoms: _607  and  _609
REMARK  251  A    between atoms: _609  and  _610
REMARK  252  A    between atoms: _609  and  _612
REMARK  253  A    between atoms: _614  and  _616
REMARK  254  A    between atoms: _616  and  _617
REMARK  255  A    between atoms: _616  and  _619
REMARK  256  A    between atoms: _619  and  _620
REMARK  257  A    between atoms: _620  and  _621
REMARK  258  A    between atoms: _624  and  _626
REMARK  259  A    between atoms: _626  and  _627
REMARK  260  A    between atoms: _626  and  _629
REMARK  261  A    between atoms: _629  and  _630
REMARK  262  A    between atoms: _630  and  _631
REMARK  263  A    between atoms: _631  and  _632
REMARK  264  A    between atoms: _632  and  _633
REMARK  265  A    between atoms: _637  and  _639
REMARK  266  A    between atoms: _639  and  _640
REMARK  267  A    between atoms: _639  and  _642
REMARK  268  A    between atoms: _642  and  _643
REMARK  269  A    between atoms: _648  and  _650
REMARK  270  A    between atoms: _650  and  _651
REMARK  271  A    between atoms: _650  and  _653
REMARK  272  A    between atoms: _653  and  _654
REMARK  273  A    between atoms: _659  and  _660
REMARK  274  A    between atoms: _662  and  _664
REMARK  275  A    between atoms: _664  and  _665
REMARK  276  A    between atoms: _664  and  _667
REMARK  277  A    between atoms: _667  and  _668
REMARK  278  A    between atoms: _668  and  _669
REMARK  279  A    between atoms: _669  and  _670
REMARK                            x       y       z     vdW  Elec       q    Type
REMARK                         _______ _______ _______ _____ _____    ______ ____
ROOT
ATOM      1  O   HOH     1      23.526   4.465  16.571  0.00  0.00    +0.000 OA
ENDROOT
TORSDOF 0
REMARK  Name = ../refined-set-2016/3t8v/3t8v_pocket.pdb
REMARK  279 active torsions:
REMARK  status: ('A' for Active; 'I' for Inactive)
REMARK    1  A    between atoms: _1  and  _3
REMARK    2  A    between atoms: _3  and  _4
REMARK    3  A    between atoms: _7  and  _9
REMARK    4  A    between atoms: _9  and  _10
REMARK    5  A    between atoms: _9  and  _12
REMARK    6  A    between atoms: _12  and  _13
REMARK    7  A    between atoms: _16  and  _18
REMARK    8  A    between atoms: _18  and  _19
REMARK    9  A    between atoms: _18  and  _21
REMARK   10  A    between atoms: _21  and  _22
REMARK   11  A    between atoms: _25  and  _27
REMARK   12  A    between atoms: _27  and  _28
REMARK   13  A    between atoms: _27  and  _30
REMARK   14  A    between atoms: _30  and  _31
REMARK   15  A    between atoms: _31  and  _32
REMARK   16  A    between atoms: _37  and  _39
REMARK   17  A    between atoms: _39  and  _40
REMARK   18  A    between atoms: _39  and  _42
REMARK   19  A    between atoms: _44  and  _46
REMARK   20  A    between atoms: _46  and  _47
REMARK   21  A    between atoms: _46  and  _49
REMARK   22  A    between atoms: _49  and  _50
REMARK   23  A    between atoms: _50  and  _51
REMARK   24  A    between atoms: _54  and  _56
REMARK   25  A    between atoms: _56  and  _57
REMARK   26  A    between atoms: _60  and  _62
REMARK   27  A    between atoms: _62  and  _63
REMARK   28  A    between atoms: _62  and  _65
REMARK   29  A    between atoms: _65  and  _66
REMARK   30  A    between atoms: _69  and  _71
REMARK   31  A    between atoms: _71  and  _72
REMARK   32  A    between atoms: _74  and  _76
REMARK   33  A    between atoms: _76  and  _77
REMARK   34  A    between atoms: _76  and  _79
REMARK   35  A    between atoms: _79  and  _80
REMARK   36  A    between atoms: _85  and  _86
REMARK   37  A    between atoms: _88  and  _90
REMARK   38  A    between atoms: _90  and  _91
REMARK   39  A    between atoms: _90  and  _93
REMARK   40  A    between atoms: _93  and  _94
REMARK   41  A    between atoms: _100  and  _102
REMARK   42  A    between atoms: _102  and  _103
REMARK   43  A    between atoms: _102  and  _105
REMARK   44  A    between atoms: _105  and  _106
REMARK   45  A    between atoms: _111  and  _113
REMARK   46  A    between atoms: _113  and  _114
REMARK   47  A    between atoms: _113  and  _116
REMARK   48  A    between atoms: _119  and  _121
REMARK   49  A    between atoms: _121  and  _122
REMARK   50  A    between atoms: _124  and  _126
REMARK   51  A    between atoms: _126  and  _127
REMARK   52  A    between atoms: _130  and  _132
REMARK   53  A    between atoms: _132  and  _133
REMARK   54  A    between atoms: _132  and  _135
REMARK   55  A    between atoms: _135  and  _136
REMARK   56  A    between atoms: _136  and  _137
REMARK   57  A    between atoms: _139  and  _141
REMARK   58  A    between atoms: _141  and  _142
REMARK   59  A    between atoms: _141  and  _144
REMARK   60  A    between atoms: _144  and  _145
REMARK   61  A    between atoms: _145  and  _146
REMARK   62  A    between atoms: _149  and  _151
REMARK   63  A    between atoms: _151  and  _152
REMARK   64  A    between atoms: _151  and  _154
REMARK   65  A    between atoms: _154  and  _155
REMARK   66  A    between atoms: _160  and  _162
REMARK   67  A    between atoms: _162  and  _163
REMARK   68  A    between atoms: _162  and  _165
REMARK   69  A    between atoms: _165  and  _166
REMARK   70  A    between atoms: _169  and  _171
REMARK   71  A    between atoms: _171  and  _172
REMARK   72  A    between atoms: _171  and  _174
REMARK   73  A    between atoms: _174  and  _175
REMARK   74  A    between atoms: _181  and  _183
REMARK   75  A    between atoms: _183  and  _184
REMARK   76  A    between atoms: _183  and  _186
REMARK   77  A    between atoms: _186  and  _187
REMARK   78  A    between atoms: _192  and  _194
REMARK   79  A    between atoms: _194  and  _195
REMARK   80  A    between atoms: _194  and  _197
REMARK   81  A    between atoms: _197  and  _198
REMARK   82  A    between atoms: _203  and  _205
REMARK   83  A    between atoms: _205  and  _206
REMARK   84  A    between atoms: _205  and  _208
REMARK   85  A    between atoms: _208  and  _209
REMARK   86  A    between atoms: _211  and  _213
REMARK   87  A    between atoms: _213  and  _214
REMARK   88  A    between atoms: _213  and  _216
REMARK   89  A    between atoms: _216  and  _217
REMARK   90  A    between atoms: _217  and  _218
REMARK   91  A    between atoms: _218  and  _219
REMARK   92  A    between atoms: _228  and  _230
REMARK   93  A    between atoms: _230  and  _231
REMARK   94  A    between atoms: _230  and  _233
REMARK   95  A    between atoms: _233  and  _234
REMARK   96  A    between atoms: _237  and  _239
REMARK   97  A    between atoms: _239  and  _240
REMARK   98  A    between atoms: _239  and  _242
REMARK   99  A    between atoms: _245  and  _247
REMARK  100  A    between atoms: _247  and  _248
REMARK  101  A    between atoms: _247  and  _250
REMARK  102  A    between atoms: _253  and  _255
REMARK  103  A    between atoms: _255  and  _256
REMARK  104  A    between atoms: _258  and  _260
REMARK  105  A    between atoms: _260  and  _261
REMARK  106  A    between atoms: _260  and  _263
REMARK  107  A    between atoms: _263  and  _264
REMARK  108  A    between atoms: _268  and  ZN_679
REMARK  109  A    between atoms: _269  and  _271
REMARK  110  A    between atoms: _271  and  _272
REMARK  111  A    between atoms: _271  and  _274
REMARK  112  A    between atoms: _274  and  _275
REMARK  113  A    between atoms: _275  and  _276
REMARK  114  A    between atoms: _279  and  _281
REMARK  115  A    between atoms: _281  and  _282
REMARK  116  A    between atoms: _281  and  _284
REMARK  117  A    between atoms: _284  and  _285
REMARK  118  A    between atoms: _290  and  _291
REMARK  119  A    between atoms: _293  and  _295
REMARK  120  A    between atoms: _295  and  _296
REMARK  121  A    between atoms: _295  and  _298
REMARK  122  A    between atoms: _298  and  _299
REMARK  123  A    between atoms: _303  and  ZN_679
REMARK  124  A    between atoms: _304  and  _306
REMARK  125  A    between atoms: _306  and  _307
REMARK  126  A    between atoms: _306  and  _309
REMARK  127  A    between atoms: _309  and  _310
REMARK  128  A    between atoms: _320  and  _322
REMARK  129  A    between atoms: _322  and  _323
REMARK  130  A    between atoms: _322  and  _325
REMARK  131  A    between atoms: _325  and  _326
REMARK  132  A    between atoms: _329  and  _331
REMARK  133  A    between atoms: _331  and  _332
REMARK  134  A    between atoms: _331  and  _334
REMARK  135  A    between atoms: _334  and  _335
REMARK  136  A    between atoms: _335  and  _336
REMARK  137  A    between atoms: _336  and  _337
REMARK  138  A    between atoms: _337  and  _338
REMARK  139  A    between atoms: _342  and  _344
REMARK  140  A    between atoms: _344  and  _345
REMARK  141  A    between atoms: _344  and  _347
REMARK  142  A    between atoms: _347  and  _348
REMARK  143  A    between atoms: _348  and  _349
REMARK  144  A    between atoms: _349  and  _350
REMARK  145  A    between atoms: _350  and  ZN_679
REMARK  146  A    between atoms: _352  and  _354
REMARK  147  A    between atoms: _354  and  _355
REMARK  148  A    between atoms: _354  and  _357
REMARK  149  A    between atoms: _357  and  _358
REMARK  150  A    between atoms: _361  and  _363
REMARK  151  A    between atoms: _363  and  _364
REMARK  152  A    between atoms: _363  and  _366
REMARK  153  A    between atoms: _369  and  _371
REMARK  154  A    between atoms: _371  and  _372
REMARK  155  A    between atoms: _371  and  _374
REMARK  156  A    between atoms: _374  and  _375
REMARK  157  A    between atoms: _375  and  _376
REMARK  158  A    between atoms: _379  and  _381
REMARK  159  A    between atoms: _381  and  _382
REMARK  160  A    between atoms: _381  and  _384
REMARK  161  A    between atoms: _384  and  _385
REMARK  162  A    between atoms: _385  and  _386
REMARK  163  A    between atoms: _389  and  _391
REMARK  164  A    between atoms: _391  and  _392
REMARK  165  A    between atoms: _391  and  _394
REMARK  166  A    between atoms: _394  and  _395
REMARK  167  A    between atoms: _398  and  _400
REMARK  168  A    between atoms: _400  and  _401
REMARK  169  A    between atoms: _400  and  _403
REMARK  170  A    between atoms: _403  and  _404
REMARK  171  A    between atoms: _409  and  _411
REMARK  172  A    between atoms: _411  and  _412
REMARK  173  A    between atoms: _411  and  _414
REMARK  174  A    between atoms: _414  and  _415
REMARK  175  A    between atoms: _417  and  _419
REMARK  176  A    between atoms: _419  and  _420
REMARK  177  A    between atoms: _419  and  _422
REMARK  178  A    between atoms: _422  and  _423
REMARK  179  A    between atoms: _423  and  _424
REMARK  180  A    between atoms: _426  and  _428
REMARK  181  A    between atoms: _428  and  _429
REMARK  182  A    between atoms: _432  and  _434
REMARK  183  A    between atoms: _434  and  _435
REMARK  184  A    between atoms: _434  and  _437
REMARK  185  A    between atoms: _437  and  _438
REMARK  186  A    between atoms: _443  and  _445
REMARK  187  A    between atoms: _445  and  _446
REMARK  188  A    between atoms: _445  and  _448
REMARK  189  A    between atoms: _448  and  _449
REMARK  190  A    between atoms: _455  and  _457
REMARK  191  A    between atoms: _457  and  _458
REMARK  192  A    between atoms: _457  and  _460
REMARK  193  A    between atoms: _460  and  _461
REMARK  194  A    between atoms: _466  and  _467
REMARK  195  A    between atoms: _469  and  _471
REMARK  196  A    between atoms: _471  and  _472
REMARK  197  A    between atoms: _471  and  _474
REMARK  198  A    between atoms: _474  and  _475
REMARK  199  A    between atoms: _478  and  _480
REMARK  200  A    between atoms: _480  and  _481
REMARK  201  A    between atoms: _480  and  _483
REMARK  202  A    between atoms: _483  and  _484
REMARK  203  A    between atoms: _487  and  _489
REMARK  204  A    between atoms: _489  and  _490
REMARK  205  A    between atoms: _489  and  _492
REMARK  206  A    between atoms: _492  and  _493
REMARK  207  A    between atoms: _496  and  _498
REMARK  208  A    between atoms: _498  and  _499
REMARK  209  A    between atoms: _498  and  _501
REMARK  210  A    between atoms: _501  and  _502
REMARK  211  A    between atoms: _507  and  _508
REMARK  212  A    between atoms: _510  and  _512
REMARK  213  A    between atoms: _512  and  _513
REMARK  214  A    between atoms: _512  and  _515
REMARK  215  A    between atoms: _515  and  _516
REMARK  216  A    between atoms: _519  and  _521
REMARK  217  A    between atoms: _521  and  _522
REMARK  218  A    between atoms: _521  and  _524
REMARK  219  A    between atoms: _524  and  _525
REMARK  220  A    between atoms: _525  and  _526
REMARK  221  A    between atoms: _526  and  _527
REMARK  222  A    between atoms: _536  and  _538
REMARK  223  A    between atoms: _538  and  _539
REMARK  224  A    between atoms: _538  and  _541
REMARK  225  A    between atoms: _541  and  _542
REMARK  226  A    between atoms: _548  and  _549
REMARK  227  A    between atoms: _554  and  _556
REMARK  228  A    between atoms: _556  and  _557
REMARK  229  A    between atoms: _556  and  _559
REMARK  230  A    between atoms: _559  and  _560
REMARK  231  A    between atoms: _560  and  _561
REMARK  232  A    between atoms: _563  and  _565
REMARK  233  A    between atoms: _565  and  _566
REMARK  234  A    between atoms: _565  and  _568
REMARK  235  A    between atoms: _571  and  _573
REMARK  236  A    between atoms: _573  and  _574
REMARK  237  A    between atoms: _577  and  _579
REMARK  238  A    between atoms: _579  and  _580
REMARK  239  A    between atoms: _579  and  _582
REMARK  240  A    between atoms: _582  and  _583
REMARK  241  A    between atoms: _586  and  _588
REMARK  242  A    between atoms: _588  and  _589
REMARK  243  A    between atoms: _588  and  _591
REMARK  244  A    between atoms: _591  and  _592
REMARK  245  A    between atoms: _592  and  _593
REMARK  246  A    between atoms: _598  and  _600
REMARK  247  A    between atoms: _600  and  _601
REMARK  248  A    between atoms: _600  and  _603
REMARK  249  A    between atoms: _603  and  _604
REMARK  250  A    between atoms: _607  and  _609
REMARK  251  A    between atoms: _609  and  _610
REMARK  252  A    between atoms: _609  and  _612
REMARK  253  A    between atoms: _614  and  _616
REMARK  254  A    between atoms: _616  and  _617
REMARK  255  A    between atoms: _616  and  _619
REMARK  256  A    between atoms: _619  and  _620
REMARK  257  A    between atoms: _620  and  _621
REMARK  258  A    between atoms: _624  and  _626
REMARK  259  A    between atoms: _626  and  _627
REMARK  260  A    between atoms: _626  and  _629
REMARK  261  A    between atoms: _629  and  _630
REMARK  262  A    between atoms: _630  and  _631
REMARK  263  A    between atoms: _631  and  _632
REMARK  264  A    between atoms: _632  and  _633
REMARK  265  A    between atoms: _637  and  _639
REMARK  266  A    between atoms: _639  and  _640
REMARK  267  A    between atoms: _639  and  _642
REMARK  268  A    between atoms: _642  and  _643
REMARK  269  A    between atoms: _648  and  _650
REMARK  270  A    between atoms: _650  and  _651
REMARK  271  A    between atoms: _650  and  _653
REMARK  272  A    between atoms: _653  and  _654
REMARK  273  A    between atoms: _659  and  _660
REMARK  274  A    between atoms: _662  and  _664
REMARK  275  A    between atoms: _664  and  _665
REMARK  276  A    between atoms: _664  and  _667
REMARK  277  A    between atoms: _667  and  _668
REMARK  278  A    between atoms: _668  and  _669
REMARK  279  A    between atoms: _669  and  _670
REMARK                            x       y       z     vdW  Elec       q    Type
REMARK                         _______ _______ _______ _____ _____    ______ ____
ROOT
ATOM      1  O   HOH     1      16.644   6.265   9.674  0.00  0.00    +0.000 OA
ENDROOT
TORSDOF 0
REMARK  Name = ../refined-set-2016/3t8v/3t8v_pocket.pdb
REMARK  279 active torsions:
REMARK  status: ('A' for Active; 'I' for Inactive)
REMARK    1  A    between atoms: _1  and  _3
REMARK    2  A    between atoms: _3  and  _4
REMARK    3  A    between atoms: _7  and  _9
REMARK    4  A    between atoms: _9  and  _10
REMARK    5  A    between atoms: _9  and  _12
REMARK    6  A    between atoms: _12  and  _13
REMARK    7  A    between atoms: _16  and  _18
REMARK    8  A    between atoms: _18  and  _19
REMARK    9  A    between atoms: _18  and  _21
REMARK   10  A    between atoms: _21  and  _22
REMARK   11  A    between atoms: _25  and  _27
REMARK   12  A    between atoms: _27  and  _28
REMARK   13  A    between atoms: _27  and  _30
REMARK   14  A    between atoms: _30  and  _31
REMARK   15  A    between atoms: _31  and  _32
REMARK   16  A    between atoms: _37  and  _39
REMARK   17  A    between atoms: _39  and  _40
REMARK   18  A    between atoms: _39  and  _42
REMARK   19  A    between atoms: _44  and  _46
REMARK   20  A    between atoms: _46  and  _47
REMARK   21  A    between atoms: _46  and  _49
REMARK   22  A    between atoms: _49  and  _50
REMARK   23  A    between atoms: _50  and  _51
REMARK   24  A    between atoms: _54  and  _56
REMARK   25  A    between atoms: _56  and  _57
REMARK   26  A    between atoms: _60  and  _62
REMARK   27  A    between atoms: _62  and  _63
REMARK   28  A    between atoms: _62  and  _65
REMARK   29  A    between atoms: _65  and  _66
REMARK   30  A    between atoms: _69  and  _71
REMARK   31  A    between atoms: _71  and  _72
REMARK   32  A    between atoms: _74  and  _76
REMARK   33  A    between atoms: _76  and  _77
REMARK   34  A    between atoms: _76  and  _79
REMARK   35  A    between atoms: _79  and  _80
REMARK   36  A    between atoms: _85  and  _86
REMARK   37  A    between atoms: _88  and  _90
REMARK   38  A    between atoms: _90  and  _91
REMARK   39  A    between atoms: _90  and  _93
REMARK   40  A    between atoms: _93  and  _94
REMARK   41  A    between atoms: _100  and  _102
REMARK   42  A    between atoms: _102  and  _103
REMARK   43  A    between atoms: _102  and  _105
REMARK   44  A    between atoms: _105  and  _106
REMARK   45  A    between atoms: _111  and  _113
REMARK   46  A    between atoms: _113  and  _114
REMARK   47  A    between atoms: _113  and  _116
REMARK   48  A    between atoms: _119  and  _121
REMARK   49  A    between atoms: _121  and  _122
REMARK   50  A    between atoms: _124  and  _126
REMARK   51  A    between atoms: _126  and  _127
REMARK   52  A    between atoms: _130  and  _132
REMARK   53  A    between atoms: _132  and  _133
REMARK   54  A    between atoms: _132  and  _135
REMARK   55  A    between atoms: _135  and  _136
REMARK   56  A    between atoms: _136  and  _137
REMARK   57  A    between atoms: _139  and  _141
REMARK   58  A    between atoms: _141  and  _142
REMARK   59  A    between atoms: _141  and  _144
REMARK   60  A    between atoms: _144  and  _145
REMARK   61  A    between atoms: _145  and  _146
REMARK   62  A    between atoms: _149  and  _151
REMARK   63  A    between atoms: _151  and  _152
REMARK   64  A    between atoms: _151  and  _154
REMARK   65  A    between atoms: _154  and  _155
REMARK   66  A    between atoms: _160  and  _162
REMARK   67  A    between atoms: _162  and  _163
REMARK   68  A    between atoms: _162  and  _165
REMARK   69  A    between atoms: _165  and  _166
REMARK   70  A    between atoms: _169  and  _171
REMARK   71  A    between atoms: _171  and  _172
REMARK   72  A    between atoms: _171  and  _174
REMARK   73  A    between atoms: _174  and  _175
REMARK   74  A    between atoms: _181  and  _183
REMARK   75  A    between atoms: _183  and  _184
REMARK   76  A    between atoms: _183  and  _186
REMARK   77  A    between atoms: _186  and  _187
REMARK   78  A    between atoms: _192  and  _194
REMARK   79  A    between atoms: _194  and  _195
REMARK   80  A    between atoms: _194  and  _197
REMARK   81  A    between atoms: _197  and  _198
REMARK   82  A    between atoms: _203  and  _205
REMARK   83  A    between atoms: _205  and  _206
REMARK   84  A    between atoms: _205  and  _208
REMARK   85  A    between atoms: _208  and  _209
REMARK   86  A    between atoms: _211  and  _213
REMARK   87  A    between atoms: _213  and  _214
REMARK   88  A    between atoms: _213  and  _216
REMARK   89  A    between atoms: _216  and  _217
REMARK   90  A    between atoms: _217  and  _218
REMARK   91  A    between atoms: _218  and  _219
REMARK   92  A    between atoms: _228  and  _230
REMARK   93  A    between atoms: _230  and  _231
REMARK   94  A    between atoms: _230  and  _233
REMARK   95  A    between atoms: _233  and  _234
REMARK   96  A    between atoms: _237  and  _239
REMARK   97  A    between atoms: _239  and  _240
REMARK   98  A    between atoms: _239  and  _242
REMARK   99  A    between atoms: _245  and  _247
REMARK  100  A    between atoms: _247  and  _248
REMARK  101  A    between atoms: _247  and  _250
REMARK  102  A    between atoms: _253  and  _255
REMARK  103  A    between atoms: _255  and  _256
REMARK  104  A    between atoms: _258  and  _260
REMARK  105  A    between atoms: _260  and  _261
REMARK  106  A    between atoms: _260  and  _263
REMARK  107  A    between atoms: _263  and  _264
REMARK  108  A    between atoms: _268  and  ZN_679
REMARK  109  A    between atoms: _269  and  _271
REMARK  110  A    between atoms: _271  and  _272
REMARK  111  A    between atoms: _271  and  _274
REMARK  112  A    between atoms: _274  and  _275
REMARK  113  A    between atoms: _275  and  _276
REMARK  114  A    between atoms: _279  and  _281
REMARK  115  A    between atoms: _281  and  _282
REMARK  116  A    between atoms: _281  and  _284
REMARK  117  A    between atoms: _284  and  _285
REMARK  118  A    between atoms: _290  and  _291
REMARK  119  A    between atoms: _293  and  _295
REMARK  120  A    between atoms: _295  and  _296
REMARK  121  A    between atoms: _295  and  _298
REMARK  122  A    between atoms: _298  and  _299
REMARK  123  A    between atoms: _303  and  ZN_679
REMARK  124  A    between atoms: _304  and  _306
REMARK  125  A    between atoms: _306  and  _307
REMARK  126  A    between atoms: _306  and  _309
REMARK  127  A    between atoms: _309  and  _310
REMARK  128  A    between atoms: _320  and  _322
REMARK  129  A    between atoms: _322  and  _323
REMARK  130  A    between atoms: _322  and  _325
REMARK  131  A    between atoms: _325  and  _326
REMARK  132  A    between atoms: _329  and  _331
REMARK  133  A    between atoms: _331  and  _332
REMARK  134  A    between atoms: _331  and  _334
REMARK  135  A    between atoms: _334  and  _335
REMARK  136  A    between atoms: _335  and  _336
REMARK  137  A    between atoms: _336  and  _337
REMARK  138  A    between atoms: _337  and  _338
REMARK  139  A    between atoms: _342  and  _344
REMARK  140  A    between atoms: _344  and  _345
REMARK  141  A    between atoms: _344  and  _347
REMARK  142  A    between atoms: _347  and  _348
REMARK  143  A    between atoms: _348  and  _349
REMARK  144  A    between atoms: _349  and  _350
REMARK  145  A    between atoms: _350  and  ZN_679
REMARK  146  A    between atoms: _352  and  _354
REMARK  147  A    between atoms: _354  and  _355
REMARK  148  A    between atoms: _354  and  _357
REMARK  149  A    between atoms: _357  and  _358
REMARK  150  A    between atoms: _361  and  _363
REMARK  151  A    between atoms: _363  and  _364
REMARK  152  A    between atoms: _363  and  _366
REMARK  153  A    between atoms: _369  and  _371
REMARK  154  A    between atoms: _371  and  _372
REMARK  155  A    between atoms: _371  and  _374
REMARK  156  A    between atoms: _374  and  _375
REMARK  157  A    between atoms: _375  and  _376
REMARK  158  A    between atoms: _379  and  _381
REMARK  159  A    between atoms: _381  and  _382
REMARK  160  A    between atoms: _381  and  _384
REMARK  161  A    between atoms: _384  and  _385
REMARK  162  A    between atoms: _385  and  _386
REMARK  163  A    between atoms: _389  and  _391
REMARK  164  A    between atoms: _391  and  _392
REMARK  165  A    between atoms: _391  and  _394
REMARK  166  A    between atoms: _394  and  _395
REMARK  167  A    between atoms: _398  and  _400
REMARK  168  A    between atoms: _400  and  _401
REMARK  169  A    between atoms: _400  and  _403
REMARK  170  A    between atoms: _403  and  _404
REMARK  171  A    between atoms: _409  and  _411
REMARK  172  A    between atoms: _411  and  _412
REMARK  173  A    between atoms: _411  and  _414
REMARK  174  A    between atoms: _414  and  _415
REMARK  175  A    between atoms: _417  and  _419
REMARK  176  A    between atoms: _419  and  _420
REMARK  177  A    between atoms: _419  and  _422
REMARK  178  A    between atoms: _422  and  _423
REMARK  179  A    between atoms: _423  and  _424
REMARK  180  A    between atoms: _426  and  _428
REMARK  181  A    between atoms: _428  and  _429
REMARK  182  A    between atoms: _432  and  _434
REMARK  183  A    between atoms: _434  and  _435
REMARK  184  A    between atoms: _434  and  _437
REMARK  185  A    between atoms: _437  and  _438
REMARK  186  A    between atoms: _443  and  _445
REMARK  187  A    between atoms: _445  and  _446
REMARK  188  A    between atoms: _445  and  _448
REMARK  189  A    between atoms: _448  and  _449
REMARK  190  A    between atoms: _455  and  _457
REMARK  191  A    between atoms: _457  and  _458
REMARK  192  A    between atoms: _457  and  _460
REMARK  193  A    between atoms: _460  and  _461
REMARK  194  A    between atoms: _466  and  _467
REMARK  195  A    between atoms: _469  and  _471
REMARK  196  A    between atoms: _471  and  _472
REMARK  197  A    between atoms: _471  and  _474
REMARK  198  A    between atoms: _474  and  _475
REMARK  199  A    between atoms: _478  and  _480
REMARK  200  A    between atoms: _480  and  _481
REMARK  201  A    between atoms: _480  and  _483
REMARK  202  A    between atoms: _483  and  _484
REMARK  203  A    between atoms: _487  and  _489
REMARK  204  A    between atoms: _489  and  _490
REMARK  205  A    between atoms: _489  and  _492
REMARK  206  A    between atoms: _492  and  _493
REMARK  207  A    between atoms: _496  and  _498
REMARK  208  A    between atoms: _498  and  _499
REMARK  209  A    between atoms: _498  and  _501
REMARK  210  A    between atoms: _501  and  _502
REMARK  211  A    between atoms: _507  and  _508
REMARK  212  A    between atoms: _510  and  _512
REMARK  213  A    between atoms: _512  and  _513
REMARK  214  A    between atoms: _512  and  _515
REMARK  215  A    between atoms: _515  and  _516
REMARK  216  A    between atoms: _519  and  _521
REMARK  217  A    between atoms: _521  and  _522
REMARK  218  A    between atoms: _521  and  _524
REMARK  219  A    between atoms: _524  and  _525
REMARK  220  A    between atoms: _525  and  _526
REMARK  221  A    between atoms: _526  and  _527
REMARK  222  A    between atoms: _536  and  _538
REMARK  223  A    between atoms: _538  and  _539
REMARK  224  A    between atoms: _538  and  _541
REMARK  225  A    between atoms: _541  and  _542
REMARK  226  A    between atoms: _548  and  _549
REMARK  227  A    between atoms: _554  and  _556
REMARK  228  A    between atoms: _556  and  _557
REMARK  229  A    between atoms: _556  and  _559
REMARK  230  A    between atoms: _559  and  _560
REMARK  231  A    between atoms: _560  and  _561
REMARK  232  A    between atoms: _563  and  _565
REMARK  233  A    between atoms: _565  and  _566
REMARK  234  A    between atoms: _565  and  _568
REMARK  235  A    between atoms: _571  and  _573
REMARK  236  A    between atoms: _573  and  _574
REMARK  237  A    between atoms: _577  and  _579
REMARK  238  A    between atoms: _579  and  _580
REMARK  239  A    between atoms: _579  and  _582
REMARK  240  A    between atoms: _582  and  _583
REMARK  241  A    between atoms: _586  and  _588
REMARK  242  A    between atoms: _588  and  _589
REMARK  243  A    between atoms: _588  and  _591
REMARK  244  A    between atoms: _591  and  _592
REMARK  245  A    between atoms: _592  and  _593
REMARK  246  A    between atoms: _598  and  _600
REMARK  247  A    between atoms: _600  and  _601
REMARK  248  A    between atoms: _600  and  _603
REMARK  249  A    between atoms: _603  and  _604
REMARK  250  A    between atoms: _607  and  _609
REMARK  251  A    between atoms: _609  and  _610
REMARK  252  A    between atoms: _609  and  _612
REMARK  253  A    between atoms: _614  and  _616
REMARK  254  A    between atoms: _616  and  _617
REMARK  255  A    between atoms: _616  and  _619
REMARK  256  A    between atoms: _619  and  _620
REMARK  257  A    between atoms: _620  and  _621
REMARK  258  A    between atoms: _624  and  _626
REMARK  259  A    between atoms: _626  and  _627
REMARK  260  A    between atoms: _626  and  _629
REMARK  261  A    between atoms: _629  and  _630
REMARK  262  A    between atoms: _630  and  _631
REMARK  263  A    between atoms: _631  and  _632
REMARK  264  A    between atoms: _632  and  _633
REMARK  265  A    between atoms: _637  and  _639
REMARK  266  A    between atoms: _639  and  _640
REMARK  267  A    between atoms: _639  and  _642
REMARK  268  A    between atoms: _642  and  _643
REMARK  269  A    between atoms: _648  and  _650
REMARK  270  A    between atoms: _650  and  _651
REMARK  271  A    between atoms: _650  and  _653
REMARK  272  A    between atoms: _653  and  _654
REMARK  273  A    between atoms: _659  and  _660
REMARK  274  A    between atoms: _662  and  _664
REMARK  275  A    between atoms: _664  and  _665
REMARK  276  A    between atoms: _664  and  _667
REMARK  277  A    between atoms: _667  and  _668
REMARK  278  A    between atoms: _668  and  _669
REMARK  279  A    between atoms: _669  and  _670
REMARK                            x       y       z     vdW  Elec       q    Type
REMARK                         _______ _______ _______ _____ _____    ______ ____
ROOT
ATOM      1  O   HOH     1      16.363  12.002  26.095  0.00  0.00    +0.000 OA
ENDROOT
TORSDOF 0
REMARK  Name = ../refined-set-2016/3t8v/3t8v_pocket.pdb
REMARK  279 active torsions:
REMARK  status: ('A' for Active; 'I' for Inactive)
REMARK    1  A    between atoms: _1  and  _3
REMARK    2  A    between atoms: _3  and  _4
REMARK    3  A    between atoms: _7  and  _9
REMARK    4  A    between atoms: _9  and  _10
REMARK    5  A    between atoms: _9  and  _12
REMARK    6  A    between atoms: _12  and  _13
REMARK    7  A    between atoms: _16  and  _18
REMARK    8  A    between atoms: _18  and  _19
REMARK    9  A    between atoms: _18  and  _21
REMARK   10  A    between atoms: _21  and  _22
REMARK   11  A    between atoms: _25  and  _27
REMARK   12  A    between atoms: _27  and  _28
REMARK   13  A    between atoms: _27  and  _30
REMARK   14  A    between atoms: _30  and  _31
REMARK   15  A    between atoms: _31  and  _32
REMARK   16  A    between atoms: _37  and  _39
REMARK   17  A    between atoms: _39  and  _40
REMARK   18  A    between atoms: _39  and  _42
REMARK   19  A    between atoms: _44  and  _46
REMARK   20  A    between atoms: _46  and  _47
REMARK   21  A    between atoms: _46  and  _49
REMARK   22  A    between atoms: _49  and  _50
REMARK   23  A    between atoms: _50  and  _51
REMARK   24  A    between atoms: _54  and  _56
REMARK   25  A    between atoms: _56  and  _57
REMARK   26  A    between atoms: _60  and  _62
REMARK   27  A    between atoms: _62  and  _63
REMARK   28  A    between atoms: _62  and  _65
REMARK   29  A    between atoms: _65  and  _66
REMARK   30  A    between atoms: _69  and  _71
REMARK   31  A    between atoms: _71  and  _72
REMARK   32  A    between atoms: _74  and  _76
REMARK   33  A    between atoms: _76  and  _77
REMARK   34  A    between atoms: _76  and  _79
REMARK   35  A    between atoms: _79  and  _80
REMARK   36  A    between atoms: _85  and  _86
REMARK   37  A    between atoms: _88  and  _90
REMARK   38  A    between atoms: _90  and  _91
REMARK   39  A    between atoms: _90  and  _93
REMARK   40  A    between atoms: _93  and  _94
REMARK   41  A    between atoms: _100  and  _102
REMARK   42  A    between atoms: _102  and  _103
REMARK   43  A    between atoms: _102  and  _105
REMARK   44  A    between atoms: _105  and  _106
REMARK   45  A    between atoms: _111  and  _113
REMARK   46  A    between atoms: _113  and  _114
REMARK   47  A    between atoms: _113  and  _116
REMARK   48  A    between atoms: _119  and  _121
REMARK   49  A    between atoms: _121  and  _122
REMARK   50  A    between atoms: _124  and  _126
REMARK   51  A    between atoms: _126  and  _127
REMARK   52  A    between atoms: _130  and  _132
REMARK   53  A    between atoms: _132  and  _133
REMARK   54  A    between atoms: _132  and  _135
REMARK   55  A    between atoms: _135  and  _136
REMARK   56  A    between atoms: _136  and  _137
REMARK   57  A    between atoms: _139  and  _141
REMARK   58  A    between atoms: _141  and  _142
REMARK   59  A    between atoms: _141  and  _144
REMARK   60  A    between atoms: _144  and  _145
REMARK   61  A    between atoms: _145  and  _146
REMARK   62  A    between atoms: _149  and  _151
REMARK   63  A    between atoms: _151  and  _152
REMARK   64  A    between atoms: _151  and  _154
REMARK   65  A    between atoms: _154  and  _155
REMARK   66  A    between atoms: _160  and  _162
REMARK   67  A    between atoms: _162  and  _163
REMARK   68  A    between atoms: _162  and  _165
REMARK   69  A    between atoms: _165  and  _166
REMARK   70  A    between atoms: _169  and  _171
REMARK   71  A    between atoms: _171  and  _172
REMARK   72  A    between atoms: _171  and  _174
REMARK   73  A    between atoms: _174  and  _175
REMARK   74  A    between atoms: _181  and  _183
REMARK   75  A    between atoms: _183  and  _184
REMARK   76  A    between atoms: _183  and  _186
REMARK   77  A    between atoms: _186  and  _187
REMARK   78  A    between atoms: _192  and  _194
REMARK   79  A    between atoms: _194  and  _195
REMARK   80  A    between atoms: _194  and  _197
REMARK   81  A    between atoms: _197  and  _198
REMARK   82  A    between atoms: _203  and  _205
REMARK   83  A    between atoms: _205  and  _206
REMARK   84  A    between atoms: _205  and  _208
REMARK   85  A    between atoms: _208  and  _209
REMARK   86  A    between atoms: _211  and  _213
REMARK   87  A    between atoms: _213  and  _214
REMARK   88  A    between atoms: _213  and  _216
REMARK   89  A    between atoms: _216  and  _217
REMARK   90  A    between atoms: _217  and  _218
REMARK   91  A    between atoms: _218  and  _219
REMARK   92  A    between atoms: _228  and  _230
REMARK   93  A    between atoms: _230  and  _231
REMARK   94  A    between atoms: _230  and  _233
REMARK   95  A    between atoms: _233  and  _234
REMARK   96  A    between atoms: _237  and  _239
REMARK   97  A    between atoms: _239  and  _240
REMARK   98  A    between atoms: _239  and  _242
REMARK   99  A    between atoms: _245  and  _247
REMARK  100  A    between atoms: _247  and  _248
REMARK  101  A    between atoms: _247  and  _250
REMARK  102  A    between atoms: _253  and  _255
REMARK  103  A    between atoms: _255  and  _256
REMARK  104  A    between atoms: _258  and  _260
REMARK  105  A    between atoms: _260  and  _261
REMARK  106  A    between atoms: _260  and  _263
REMARK  107  A    between atoms: _263  and  _264
REMARK  108  A    between atoms: _268  and  ZN_679
REMARK  109  A    between atoms: _269  and  _271
REMARK  110  A    between atoms: _271  and  _272
REMARK  111  A    between atoms: _271  and  _274
REMARK  112  A    between atoms: _274  and  _275
REMARK  113  A    between atoms: _275  and  _276
REMARK  114  A    between atoms: _279  and  _281
REMARK  115  A    between atoms: _281  and  _282
REMARK  116  A    between atoms: _281  and  _284
REMARK  117  A    between atoms: _284  and  _285
REMARK  118  A    between atoms: _290  and  _291
REMARK  119  A    between atoms: _293  and  _295
REMARK  120  A    between atoms: _295  and  _296
REMARK  121  A    between atoms: _295  and  _298
REMARK  122  A    between atoms: _298  and  _299
REMARK  123  A    between atoms: _303  and  ZN_679
REMARK  124  A    between atoms: _304  and  _306
REMARK  125  A    between atoms: _306  and  _307
REMARK  126  A    between atoms: _306  and  _309
REMARK  127  A    between atoms: _309  and  _310
REMARK  128  A    between atoms: _320  and  _322
REMARK  129  A    between atoms: _322  and  _323
REMARK  130  A    between atoms: _322  and  _325
REMARK  131  A    between atoms: _325  and  _326
REMARK  132  A    between atoms: _329  and  _331
REMARK  133  A    between atoms: _331  and  _332
REMARK  134  A    between atoms: _331  and  _334
REMARK  135  A    between atoms: _334  and  _335
REMARK  136  A    between atoms: _335  and  _336
REMARK  137  A    between atoms: _336  and  _337
REMARK  138  A    between atoms: _337  and  _338
REMARK  139  A    between atoms: _342  and  _344
REMARK  140  A    between atoms: _344  and  _345
REMARK  141  A    between atoms: _344  and  _347
REMARK  142  A    between atoms: _347  and  _348
REMARK  143  A    between atoms: _348  and  _349
REMARK  144  A    between atoms: _349  and  _350
REMARK  145  A    between atoms: _350  and  ZN_679
REMARK  146  A    between atoms: _352  and  _354
REMARK  147  A    between atoms: _354  and  _355
REMARK  148  A    between atoms: _354  and  _357
REMARK  149  A    between atoms: _357  and  _358
REMARK  150  A    between atoms: _361  and  _363
REMARK  151  A    between atoms: _363  and  _364
REMARK  152  A    between atoms: _363  and  _366
REMARK  153  A    between atoms: _369  and  _371
REMARK  154  A    between atoms: _371  and  _372
REMARK  155  A    between atoms: _371  and  _374
REMARK  156  A    between atoms: _374  and  _375
REMARK  157  A    between atoms: _375  and  _376
REMARK  158  A    between atoms: _379  and  _381
REMARK  159  A    between atoms: _381  and  _382
REMARK  160  A    between atoms: _381  and  _384
REMARK  161  A    between atoms: _384  and  _385
REMARK  162  A    between atoms: _385  and  _386
REMARK  163  A    between atoms: _389  and  _391
REMARK  164  A    between atoms: _391  and  _392
REMARK  165  A    between atoms: _391  and  _394
REMARK  166  A    between atoms: _394  and  _395
REMARK  167  A    between atoms: _398  and  _400
REMARK  168  A    between atoms: _400  and  _401
REMARK  169  A    between atoms: _400  and  _403
REMARK  170  A    between atoms: _403  and  _404
REMARK  171  A    between atoms: _409  and  _411
REMARK  172  A    between atoms: _411  and  _412
REMARK  173  A    between atoms: _411  and  _414
REMARK  174  A    between atoms: _414  and  _415
REMARK  175  A    between atoms: _417  and  _419
REMARK  176  A    between atoms: _419  and  _420
REMARK  177  A    between atoms: _419  and  _422
REMARK  178  A    between atoms: _422  and  _423
REMARK  179  A    between atoms: _423  and  _424
REMARK  180  A    between atoms: _426  and  _428
REMARK  181  A    between atoms: _428  and  _429
REMARK  182  A    between atoms: _432  and  _434
REMARK  183  A    between atoms: _434  and  _435
REMARK  184  A    between atoms: _434  and  _437
REMARK  185  A    between atoms: _437  and  _438
REMARK  186  A    between atoms: _443  and  _445
REMARK  187  A    between atoms: _445  and  _446
REMARK  188  A    between atoms: _445  and  _448
REMARK  189  A    between atoms: _448  and  _449
REMARK  190  A    between atoms: _455  and  _457
REMARK  191  A    between atoms: _457  and  _458
REMARK  192  A    between atoms: _457  and  _460
REMARK  193  A    between atoms: _460  and  _461
REMARK  194  A    between atoms: _466  and  _467
REMARK  195  A    between atoms: _469  and  _471
REMARK  196  A    between atoms: _471  and  _472
REMARK  197  A    between atoms: _471  and  _474
REMARK  198  A    between atoms: _474  and  _475
REMARK  199  A    between atoms: _478  and  _480
REMARK  200  A    between atoms: _480  and  _481
REMARK  201  A    between atoms: _480  and  _483
REMARK  202  A    between atoms: _483  and  _484
REMARK  203  A    between atoms: _487  and  _489
REMARK  204  A    between atoms: _489  and  _490
REMARK  205  A    between atoms: _489  and  _492
REMARK  206  A    between atoms: _492  and  _493
REMARK  207  A    between atoms: _496  and  _498
REMARK  208  A    between atoms: _498  and  _499
REMARK  209  A    between atoms: _498  and  _501
REMARK  210  A    between atoms: _501  and  _502
REMARK  211  A    between atoms: _507  and  _508
REMARK  212  A    between atoms: _510  and  _512
REMARK  213  A    between atoms: _512  and  _513
REMARK  214  A    between atoms: _512  and  _515
REMARK  215  A    between atoms: _515  and  _516
REMARK  216  A    between atoms: _519  and  _521
REMARK  217  A    between atoms: _521  and  _522
REMARK  218  A    between atoms: _521  and  _524
REMARK  219  A    between atoms: _524  and  _525
REMARK  220  A    between atoms: _525  and  _526
REMARK  221  A    between atoms: _526  and  _527
REMARK  222  A    between atoms: _536  and  _538
REMARK  223  A    between atoms: _538  and  _539
REMARK  224  A    between atoms: _538  and  _541
REMARK  225  A    between atoms: _541  and  _542
REMARK  226  A    between atoms: _548  and  _549
REMARK  227  A    between atoms: _554  and  _556
REMARK  228  A    between atoms: _556  and  _557
REMARK  229  A    between atoms: _556  and  _559
REMARK  230  A    between atoms: _559  and  _560
REMARK  231  A    between atoms: _560  and  _561
REMARK  232  A    between atoms: _563  and  _565
REMARK  233  A    between atoms: _565  and  _566
REMARK  234  A    between atoms: _565  and  _568
REMARK  235  A    between atoms: _571  and  _573
REMARK  236  A    between atoms: _573  and  _574
REMARK  237  A    between atoms: _577  and  _579
REMARK  238  A    between atoms: _579  and  _580
REMARK  239  A    between atoms: _579  and  _582
REMARK  240  A    between atoms: _582  and  _583
REMARK  241  A    between atoms: _586  and  _588
REMARK  242  A    between atoms: _588  and  _589
REMARK  243  A    between atoms: _588  and  _591
REMARK  244  A    between atoms: _591  and  _592
REMARK  245  A    between atoms: _592  and  _593
REMARK  246  A    between atoms: _598  and  _600
REMARK  247  A    between atoms: _600  and  _601
REMARK  248  A    between atoms: _600  and  _603
REMARK  249  A    between atoms: _603  and  _604
REMARK  250  A    between atoms: _607  and  _609
REMARK  251  A    between atoms: _609  and  _610
REMARK  252  A    between atoms: _609  and  _612
REMARK  253  A    between atoms: _614  and  _616
REMARK  254  A    between atoms: _616  and  _617
REMARK  255  A    between atoms: _616  and  _619
REMARK  256  A    between atoms: _619  and  _620
REMARK  257  A    between atoms: _620  and  _621
REMARK  258  A    between atoms: _624  and  _626
REMARK  259  A    between atoms: _626  and  _627
REMARK  260  A    between atoms: _626  and  _629
REMARK  261  A    between atoms: _629  and  _630
REMARK  262  A    between atoms: _630  and  _631
REMARK  263  A    between atoms: _631  and  _632
REMARK  264  A    between atoms: _632  and  _633
REMARK  265  A    between atoms: _637  and  _639
REMARK  266  A    between atoms: _639  and  _640
REMARK  267  A    between atoms: _639  and  _642
REMARK  268  A    between atoms: _642  and  _643
REMARK  269  A    between atoms: _648  and  _650
REMARK  270  A    between atoms: _650  and  _651
REMARK  271  A    between atoms: _650  and  _653
REMARK  272  A    between atoms: _653  and  _654
REMARK  273  A    between atoms: _659  and  _660
REMARK  274  A    between atoms: _662  and  _664
REMARK  275  A    between atoms: _664  and  _665
REMARK  276  A    between atoms: _664  and  _667
REMARK  277  A    between atoms: _667  and  _668
REMARK  278  A    between atoms: _668  and  _669
REMARK  279  A    between atoms: _669  and  _670
REMARK                            x       y       z     vdW  Elec       q    Type
REMARK                         _______ _______ _______ _____ _____    ______ ____
ROOT
ATOM      1  O   HOH     1       9.537  13.014  22.238  0.00  0.00    +0.000 OA
ENDROOT
TORSDOF 0
REMARK  Name = ../refined-set-2016/3t8v/3t8v_pocket.pdb
REMARK  279 active torsions:
REMARK  status: ('A' for Active; 'I' for Inactive)
REMARK    1  A    between atoms: _1  and  _3
REMARK    2  A    between atoms: _3  and  _4
REMARK    3  A    between atoms: _7  and  _9
REMARK    4  A    between atoms: _9  and  _10
REMARK    5  A    between atoms: _9  and  _12
REMARK    6  A    between atoms: _12  and  _13
REMARK    7  A    between atoms: _16  and  _18
REMARK    8  A    between atoms: _18  and  _19
REMARK    9  A    between atoms: _18  and  _21
REMARK   10  A    between atoms: _21  and  _22
REMARK   11  A    between atoms: _25  and  _27
REMARK   12  A    between atoms: _27  and  _28
REMARK   13  A    between atoms: _27  and  _30
REMARK   14  A    between atoms: _30  and  _31
REMARK   15  A    between atoms: _31  and  _32
REMARK   16  A    between atoms: _37  and  _39
REMARK   17  A    between atoms: _39  and  _40
REMARK   18  A    between atoms: _39  and  _42
REMARK   19  A    between atoms: _44  and  _46
REMARK   20  A    between atoms: _46  and  _47
REMARK   21  A    between atoms: _46  and  _49
REMARK   22  A    between atoms: _49  and  _50
REMARK   23  A    between atoms: _50  and  _51
REMARK   24  A    between atoms: _54  and  _56
REMARK   25  A    between atoms: _56  and  _57
REMARK   26  A    between atoms: _60  and  _62
REMARK   27  A    between atoms: _62  and  _63
REMARK   28  A    between atoms: _62  and  _65
REMARK   29  A    between atoms: _65  and  _66
REMARK   30  A    between atoms: _69  and  _71
REMARK   31  A    between atoms: _71  and  _72
REMARK   32  A    between atoms: _74  and  _76
REMARK   33  A    between atoms: _76  and  _77
REMARK   34  A    between atoms: _76  and  _79
REMARK   35  A    between atoms: _79  and  _80
REMARK   36  A    between atoms: _85  and  _86
REMARK   37  A    between atoms: _88  and  _90
REMARK   38  A    between atoms: _90  and  _91
REMARK   39  A    between atoms: _90  and  _93
REMARK   40  A    between atoms: _93  and  _94
REMARK   41  A    between atoms: _100  and  _102
REMARK   42  A    between atoms: _102  and  _103
REMARK   43  A    between atoms: _102  and  _105
REMARK   44  A    between atoms: _105  and  _106
REMARK   45  A    between atoms: _111  and  _113
REMARK   46  A    between atoms: _113  and  _114
REMARK   47  A    between atoms: _113  and  _116
REMARK   48  A    between atoms: _119  and  _121
REMARK   49  A    between atoms: _121  and  _122
REMARK   50  A    between atoms: _124  and  _126
REMARK   51  A    between atoms: _126  and  _127
REMARK   52  A    between atoms: _130  and  _132
REMARK   53  A    between atoms: _132  and  _133
REMARK   54  A    between atoms: _132  and  _135
REMARK   55  A    between atoms: _135  and  _136
REMARK   56  A    between atoms: _136  and  _137
REMARK   57  A    between atoms: _139  and  _141
REMARK   58  A    between atoms: _141  and  _142
REMARK   59  A    between atoms: _141  and  _144
REMARK   60  A    between atoms: _144  and  _145
REMARK   61  A    between atoms: _145  and  _146
REMARK   62  A    between atoms: _149  and  _151
REMARK   63  A    between atoms: _151  and  _152
REMARK   64  A    between atoms: _151  and  _154
REMARK   65  A    between atoms: _154  and  _155
REMARK   66  A    between atoms: _160  and  _162
REMARK   67  A    between atoms: _162  and  _163
REMARK   68  A    between atoms: _162  and  _165
REMARK   69  A    between atoms: _165  and  _166
REMARK   70  A    between atoms: _169  and  _171
REMARK   71  A    between atoms: _171  and  _172
REMARK   72  A    between atoms: _171  and  _174
REMARK   73  A    between atoms: _174  and  _175
REMARK   74  A    between atoms: _181  and  _183
REMARK   75  A    between atoms: _183  and  _184
REMARK   76  A    between atoms: _183  and  _186
REMARK   77  A    between atoms: _186  and  _187
REMARK   78  A    between atoms: _192  and  _194
REMARK   79  A    between atoms: _194  and  _195
REMARK   80  A    between atoms: _194  and  _197
REMARK   81  A    between atoms: _197  and  _198
REMARK   82  A    between atoms: _203  and  _205
REMARK   83  A    between atoms: _205  and  _206
REMARK   84  A    between atoms: _205  and  _208
REMARK   85  A    between atoms: _208  and  _209
REMARK   86  A    between atoms: _211  and  _213
REMARK   87  A    between atoms: _213  and  _214
REMARK   88  A    between atoms: _213  and  _216
REMARK   89  A    between atoms: _216  and  _217
REMARK   90  A    between atoms: _217  and  _218
REMARK   91  A    between atoms: _218  and  _219
REMARK   92  A    between atoms: _228  and  _230
REMARK   93  A    between atoms: _230  and  _231
REMARK   94  A    between atoms: _230  and  _233
REMARK   95  A    between atoms: _233  and  _234
REMARK   96  A    between atoms: _237  and  _239
REMARK   97  A    between atoms: _239  and  _240
REMARK   98  A    between atoms: _239  and  _242
REMARK   99  A    between atoms: _245  and  _247
REMARK  100  A    between atoms: _247  and  _248
REMARK  101  A    between atoms: _247  and  _250
REMARK  102  A    between atoms: _253  and  _255
REMARK  103  A    between atoms: _255  and  _256
REMARK  104  A    between atoms: _258  and  _260
REMARK  105  A    between atoms: _260  and  _261
REMARK  106  A    between atoms: _260  and  _263
REMARK  107  A    between atoms: _263  and  _264
REMARK  108  A    between atoms: _268  and  ZN_679
REMARK  109  A    between atoms: _269  and  _271
REMARK  110  A    between atoms: _271  and  _272
REMARK  111  A    between atoms: _271  and  _274
REMARK  112  A    between atoms: _274  and  _275
REMARK  113  A    between atoms: _275  and  _276
REMARK  114  A    between atoms: _279  and  _281
REMARK  115  A    between atoms: _281  and  _282
REMARK  116  A    between atoms: _281  and  _284
REMARK  117  A    between atoms: _284  and  _285
REMARK  118  A    between atoms: _290  and  _291
REMARK  119  A    between atoms: _293  and  _295
REMARK  120  A    between atoms: _295  and  _296
REMARK  121  A    between atoms: _295  and  _298
REMARK  122  A    between atoms: _298  and  _299
REMARK  123  A    between atoms: _303  and  ZN_679
REMARK  124  A    between atoms: _304  and  _306
REMARK  125  A    between atoms: _306  and  _307
REMARK  126  A    between atoms: _306  and  _309
REMARK  127  A    between atoms: _309  and  _310
REMARK  128  A    between atoms: _320  and  _322
REMARK  129  A    between atoms: _322  and  _323
REMARK  130  A    between atoms: _322  and  _325
REMARK  131  A    between atoms: _325  and  _326
REMARK  132  A    between atoms: _329  and  _331
REMARK  133  A    between atoms: _331  and  _332
REMARK  134  A    between atoms: _331  and  _334
REMARK  135  A    between atoms: _334  and  _335
REMARK  136  A    between atoms: _335  and  _336
REMARK  137  A    between atoms: _336  and  _337
REMARK  138  A    between atoms: _337  and  _338
REMARK  139  A    between atoms: _342  and  _344
REMARK  140  A    between atoms: _344  and  _345
REMARK  141  A    between atoms: _344  and  _347
REMARK  142  A    between atoms: _347  and  _348
REMARK  143  A    between atoms: _348  and  _349
REMARK  144  A    between atoms: _349  and  _350
REMARK  145  A    between atoms: _350  and  ZN_679
REMARK  146  A    between atoms: _352  and  _354
REMARK  147  A    between atoms: _354  and  _355
REMARK  148  A    between atoms: _354  and  _357
REMARK  149  A    between atoms: _357  and  _358
REMARK  150  A    between atoms: _361  and  _363
REMARK  151  A    between atoms: _363  and  _364
REMARK  152  A    between atoms: _363  and  _366
REMARK  153  A    between atoms: _369  and  _371
REMARK  154  A    between atoms: _371  and  _372
REMARK  155  A    between atoms: _371  and  _374
REMARK  156  A    between atoms: _374  and  _375
REMARK  157  A    between atoms: _375  and  _376
REMARK  158  A    between atoms: _379  and  _381
REMARK  159  A    between atoms: _381  and  _382
REMARK  160  A    between atoms: _381  and  _384
REMARK  161  A    between atoms: _384  and  _385
REMARK  162  A    between atoms: _385  and  _386
REMARK  163  A    between atoms: _389  and  _391
REMARK  164  A    between atoms: _391  and  _392
REMARK  165  A    between atoms: _391  and  _394
REMARK  166  A    between atoms: _394  and  _395
REMARK  167  A    between atoms: _398  and  _400
REMARK  168  A    between atoms: _400  and  _401
REMARK  169  A    between atoms: _400  and  _403
REMARK  170  A    between atoms: _403  and  _404
REMARK  171  A    between atoms: _409  and  _411
REMARK  172  A    between atoms: _411  and  _412
REMARK  173  A    between atoms: _411  and  _414
REMARK  174  A    between atoms: _414  and  _415
REMARK  175  A    between atoms: _417  and  _419
REMARK  176  A    between atoms: _419  and  _420
REMARK  177  A    between atoms: _419  and  _422
REMARK  178  A    between atoms: _422  and  _423
REMARK  179  A    between atoms: _423  and  _424
REMARK  180  A    between atoms: _426  and  _428
REMARK  181  A    between atoms: _428  and  _429
REMARK  182  A    between atoms: _432  and  _434
REMARK  183  A    between atoms: _434  and  _435
REMARK  184  A    between atoms: _434  and  _437
REMARK  185  A    between atoms: _437  and  _438
REMARK  186  A    between atoms: _443  and  _445
REMARK  187  A    between atoms: _445  and  _446
REMARK  188  A    between atoms: _445  and  _448
REMARK  189  A    between atoms: _448  and  _449
REMARK  190  A    between atoms: _455  and  _457
REMARK  191  A    between atoms: _457  and  _458
REMARK  192  A    between atoms: _457  and  _460
REMARK  193  A    between atoms: _460  and  _461
REMARK  194  A    between atoms: _466  and  _467
REMARK  195  A    between atoms: _469  and  _471
REMARK  196  A    between atoms: _471  and  _472
REMARK  197  A    between atoms: _471  and  _474
REMARK  198  A    between atoms: _474  and  _475
REMARK  199  A    between atoms: _478  and  _480
REMARK  200  A    between atoms: _480  and  _481
REMARK  201  A    between atoms: _480  and  _483
REMARK  202  A    between atoms: _483  and  _484
REMARK  203  A    between atoms: _487  and  _489
REMARK  204  A    between atoms: _489  and  _490
REMARK  205  A    between atoms: _489  and  _492
REMARK  206  A    between atoms: _492  and  _493
REMARK  207  A    between atoms: _496  and  _498
REMARK  208  A    between atoms: _498  and  _499
REMARK  209  A    between atoms: _498  and  _501
REMARK  210  A    between atoms: _501  and  _502
REMARK  211  A    between atoms: _507  and  _508
REMARK  212  A    between atoms: _510  and  _512
REMARK  213  A    between atoms: _512  and  _513
REMARK  214  A    between atoms: _512  and  _515
REMARK  215  A    between atoms: _515  and  _516
REMARK  216  A    between atoms: _519  and  _521
REMARK  217  A    between atoms: _521  and  _522
REMARK  218  A    between atoms: _521  and  _524
REMARK  219  A    between atoms: _524  and  _525
REMARK  220  A    between atoms: _525  and  _526
REMARK  221  A    between atoms: _526  and  _527
REMARK  222  A    between atoms: _536  and  _538
REMARK  223  A    between atoms: _538  and  _539
REMARK  224  A    between atoms: _538  and  _541
REMARK  225  A    between atoms: _541  and  _542
REMARK  226  A    between atoms: _548  and  _549
REMARK  227  A    between atoms: _554  and  _556
REMARK  228  A    between atoms: _556  and  _557
REMARK  229  A    between atoms: _556  and  _559
REMARK  230  A    between atoms: _559  and  _560
REMARK  231  A    between atoms: _560  and  _561
REMARK  232  A    between atoms: _563  and  _565
REMARK  233  A    between atoms: _565  and  _566
REMARK  234  A    between atoms: _565  and  _568
REMARK  235  A    between atoms: _571  and  _573
REMARK  236  A    between atoms: _573  and  _574
REMARK  237  A    between atoms: _577  and  _579
REMARK  238  A    between atoms: _579  and  _580
REMARK  239  A    between atoms: _579  and  _582
REMARK  240  A    between atoms: _582  and  _583
REMARK  241  A    between atoms: _586  and  _588
REMARK  242  A    between atoms: _588  and  _589
REMARK  243  A    between atoms: _588  and  _591
REMARK  244  A    between atoms: _591  and  _592
REMARK  245  A    between atoms: _592  and  _593
REMARK  246  A    between atoms: _598  and  _600
REMARK  247  A    between atoms: _600  and  _601
REMARK  248  A    between atoms: _600  and  _603
REMARK  249  A    between atoms: _603  and  _604
REMARK  250  A    between atoms: _607  and  _609
REMARK  251  A    between atoms: _609  and  _610
REMARK  252  A    between atoms: _609  and  _612
REMARK  253  A    between atoms: _614  and  _616
REMARK  254  A    between atoms: _616  and  _617
REMARK  255  A    between atoms: _616  and  _619
REMARK  256  A    between atoms: _619  and  _620
REMARK  257  A    between atoms: _620  and  _621
REMARK  258  A    between atoms: _624  and  _626
REMARK  259  A    between atoms: _626  and  _627
REMARK  260  A    between atoms: _626  and  _629
REMARK  261  A    between atoms: _629  and  _630
REMARK  262  A    between atoms: _630  and  _631
REMARK  263  A    between atoms: _631  and  _632
REMARK  264  A    between atoms: _632  and  _633
REMARK  265  A    between atoms: _637  and  _639
REMARK  266  A    between atoms: _639  and  _640
REMARK  267  A    between atoms: _639  and  _642
REMARK  268  A    between atoms: _642  and  _643
REMARK  269  A    between atoms: _648  and  _650
REMARK  270  A    between atoms: _650  and  _651
REMARK  271  A    between atoms: _650  and  _653
REMARK  272  A    between atoms: _653  and  _654
REMARK  273  A    between atoms: _659  and  _660
REMARK  274  A    between atoms: _662  and  _664
REMARK  275  A    between atoms: _664  and  _665
REMARK  276  A    between atoms: _664  and  _667
REMARK  277  A    between atoms: _667  and  _668
REMARK  278  A    between atoms: _668  and  _669
REMARK  279  A    between atoms: _669  and  _670
REMARK                            x       y       z     vdW  Elec       q    Type
REMARK                         _______ _______ _______ _____ _____    ______ ____
ROOT
ATOM      1  O   HOH     1      15.073  13.381  20.427  0.00  0.00    +0.000 OA
ENDROOT
TORSDOF 0
REMARK  Name = ../refined-set-2016/3t8v/3t8v_pocket.pdb
REMARK  279 active torsions:
REMARK  status: ('A' for Active; 'I' for Inactive)
REMARK    1  A    between atoms: _1  and  _3
REMARK    2  A    between atoms: _3  and  _4
REMARK    3  A    between atoms: _7  and  _9
REMARK    4  A    between atoms: _9  and  _10
REMARK    5  A    between atoms: _9  and  _12
REMARK    6  A    between atoms: _12  and  _13
REMARK    7  A    between atoms: _16  and  _18
REMARK    8  A    between atoms: _18  and  _19
REMARK    9  A    between atoms: _18  and  _21
REMARK   10  A    between atoms: _21  and  _22
REMARK   11  A    between atoms: _25  and  _27
REMARK   12  A    between atoms: _27  and  _28
REMARK   13  A    between atoms: _27  and  _30
REMARK   14  A    between atoms: _30  and  _31
REMARK   15  A    between atoms: _31  and  _32
REMARK   16  A    between atoms: _37  and  _39
REMARK   17  A    between atoms: _39  and  _40
REMARK   18  A    between atoms: _39  and  _42
REMARK   19  A    between atoms: _44  and  _46
REMARK   20  A    between atoms: _46  and  _47
REMARK   21  A    between atoms: _46  and  _49
REMARK   22  A    between atoms: _49  and  _50
REMARK   23  A    between atoms: _50  and  _51
REMARK   24  A    between atoms: _54  and  _56
REMARK   25  A    between atoms: _56  and  _57
REMARK   26  A    between atoms: _60  and  _62
REMARK   27  A    between atoms: _62  and  _63
REMARK   28  A    between atoms: _62  and  _65
REMARK   29  A    between atoms: _65  and  _66
REMARK   30  A    between atoms: _69  and  _71
REMARK   31  A    between atoms: _71  and  _72
REMARK   32  A    between atoms: _74  and  _76
REMARK   33  A    between atoms: _76  and  _77
REMARK   34  A    between atoms: _76  and  _79
REMARK   35  A    between atoms: _79  and  _80
REMARK   36  A    between atoms: _85  and  _86
REMARK   37  A    between atoms: _88  and  _90
REMARK   38  A    between atoms: _90  and  _91
REMARK   39  A    between atoms: _90  and  _93
REMARK   40  A    between atoms: _93  and  _94
REMARK   41  A    between atoms: _100  and  _102
REMARK   42  A    between atoms: _102  and  _103
REMARK   43  A    between atoms: _102  and  _105
REMARK   44  A    between atoms: _105  and  _106
REMARK   45  A    between atoms: _111  and  _113
REMARK   46  A    between atoms: _113  and  _114
REMARK   47  A    between atoms: _113  and  _116
REMARK   48  A    between atoms: _119  and  _121
REMARK   49  A    between atoms: _121  and  _122
REMARK   50  A    between atoms: _124  and  _126
REMARK   51  A    between atoms: _126  and  _127
REMARK   52  A    between atoms: _130  and  _132
REMARK   53  A    between atoms: _132  and  _133
REMARK   54  A    between atoms: _132  and  _135
REMARK   55  A    between atoms: _135  and  _136
REMARK   56  A    between atoms: _136  and  _137
REMARK   57  A    between atoms: _139  and  _141
REMARK   58  A    between atoms: _141  and  _142
REMARK   59  A    between atoms: _141  and  _144
REMARK   60  A    between atoms: _144  and  _145
REMARK   61  A    between atoms: _145  and  _146
REMARK   62  A    between atoms: _149  and  _151
REMARK   63  A    between atoms: _151  and  _152
REMARK   64  A    between atoms: _151  and  _154
REMARK   65  A    between atoms: _154  and  _155
REMARK   66  A    between atoms: _160  and  _162
REMARK   67  A    between atoms: _162  and  _163
REMARK   68  A    between atoms: _162  and  _165
REMARK   69  A    between atoms: _165  and  _166
REMARK   70  A    between atoms: _169  and  _171
REMARK   71  A    between atoms: _171  and  _172
REMARK   72  A    between atoms: _171  and  _174
REMARK   73  A    between atoms: _174  and  _175
REMARK   74  A    between atoms: _181  and  _183
REMARK   75  A    between atoms: _183  and  _184
REMARK   76  A    between atoms: _183  and  _186
REMARK   77  A    between atoms: _186  and  _187
REMARK   78  A    between atoms: _192  and  _194
REMARK   79  A    between atoms: _194  and  _195
REMARK   80  A    between atoms: _194  and  _197
REMARK   81  A    between atoms: _197  and  _198
REMARK   82  A    between atoms: _203  and  _205
REMARK   83  A    between atoms: _205  and  _206
REMARK   84  A    between atoms: _205  and  _208
REMARK   85  A    between atoms: _208  and  _209
REMARK   86  A    between atoms: _211  and  _213
REMARK   87  A    between atoms: _213  and  _214
REMARK   88  A    between atoms: _213  and  _216
REMARK   89  A    between atoms: _216  and  _217
REMARK   90  A    between atoms: _217  and  _218
REMARK   91  A    between atoms: _218  and  _219
REMARK   92  A    between atoms: _228  and  _230
REMARK   93  A    between atoms: _230  and  _231
REMARK   94  A    between atoms: _230  and  _233
REMARK   95  A    between atoms: _233  and  _234
REMARK   96  A    between atoms: _237  and  _239
REMARK   97  A    between atoms: _239  and  _240
REMARK   98  A    between atoms: _239  and  _242
REMARK   99  A    between atoms: _245  and  _247
REMARK  100  A    between atoms: _247  and  _248
REMARK  101  A    between atoms: _247  and  _250
REMARK  102  A    between atoms: _253  and  _255
REMARK  103  A    between atoms: _255  and  _256
REMARK  104  A    between atoms: _258  and  _260
REMARK  105  A    between atoms: _260  and  _261
REMARK  106  A    between atoms: _260  and  _263
REMARK  107  A    between atoms: _263  and  _264
REMARK  108  A    between atoms: _268  and  ZN_679
REMARK  109  A    between atoms: _269  and  _271
REMARK  110  A    between atoms: _271  and  _272
REMARK  111  A    between atoms: _271  and  _274
REMARK  112  A    between atoms: _274  and  _275
REMARK  113  A    between atoms: _275  and  _276
REMARK  114  A    between atoms: _279  and  _281
REMARK  115  A    between atoms: _281  and  _282
REMARK  116  A    between atoms: _281  and  _284
REMARK  117  A    between atoms: _284  and  _285
REMARK  118  A    between atoms: _290  and  _291
REMARK  119  A    between atoms: _293  and  _295
REMARK  120  A    between atoms: _295  and  _296
REMARK  121  A    between atoms: _295  and  _298
REMARK  122  A    between atoms: _298  and  _299
REMARK  123  A    between atoms: _303  and  ZN_679
REMARK  124  A    between atoms: _304  and  _306
REMARK  125  A    between atoms: _306  and  _307
REMARK  126  A    between atoms: _306  and  _309
REMARK  127  A    between atoms: _309  and  _310
REMARK  128  A    between atoms: _320  and  _322
REMARK  129  A    between atoms: _322  and  _323
REMARK  130  A    between atoms: _322  and  _325
REMARK  131  A    between atoms: _325  and  _326
REMARK  132  A    between atoms: _329  and  _331
REMARK  133  A    between atoms: _331  and  _332
REMARK  134  A    between atoms: _331  and  _334
REMARK  135  A    between atoms: _334  and  _335
REMARK  136  A    between atoms: _335  and  _336
REMARK  137  A    between atoms: _336  and  _337
REMARK  138  A    between atoms: _337  and  _338
REMARK  139  A    between atoms: _342  and  _344
REMARK  140  A    between atoms: _344  and  _345
REMARK  141  A    between atoms: _344  and  _347
REMARK  142  A    between atoms: _347  and  _348
REMARK  143  A    between atoms: _348  and  _349
REMARK  144  A    between atoms: _349  and  _350
REMARK  145  A    between atoms: _350  and  ZN_679
REMARK  146  A    between atoms: _352  and  _354
REMARK  147  A    between atoms: _354  and  _355
REMARK  148  A    between atoms: _354  and  _357
REMARK  149  A    between atoms: _357  and  _358
REMARK  150  A    between atoms: _361  and  _363
REMARK  151  A    between atoms: _363  and  _364
REMARK  152  A    between atoms: _363  and  _366
REMARK  153  A    between atoms: _369  and  _371
REMARK  154  A    between atoms: _371  and  _372
REMARK  155  A    between atoms: _371  and  _374
REMARK  156  A    between atoms: _374  and  _375
REMARK  157  A    between atoms: _375  and  _376
REMARK  158  A    between atoms: _379  and  _381
REMARK  159  A    between atoms: _381  and  _382
REMARK  160  A    between atoms: _381  and  _384
REMARK  161  A    between atoms: _384  and  _385
REMARK  162  A    between atoms: _385  and  _386
REMARK  163  A    between atoms: _389  and  _391
REMARK  164  A    between atoms: _391  and  _392
REMARK  165  A    between atoms: _391  and  _394
REMARK  166  A    between atoms: _394  and  _395
REMARK  167  A    between atoms: _398  and  _400
REMARK  168  A    between atoms: _400  and  _401
REMARK  169  A    between atoms: _400  and  _403
REMARK  170  A    between atoms: _403  and  _404
REMARK  171  A    between atoms: _409  and  _411
REMARK  172  A    between atoms: _411  and  _412
REMARK  173  A    between atoms: _411  and  _414
REMARK  174  A    between atoms: _414  and  _415
REMARK  175  A    between atoms: _417  and  _419
REMARK  176  A    between atoms: _419  and  _420
REMARK  177  A    between atoms: _419  and  _422
REMARK  178  A    between atoms: _422  and  _423
REMARK  179  A    between atoms: _423  and  _424
REMARK  180  A    between atoms: _426  and  _428
REMARK  181  A    between atoms: _428  and  _429
REMARK  182  A    between atoms: _432  and  _434
REMARK  183  A    between atoms: _434  and  _435
REMARK  184  A    between atoms: _434  and  _437
REMARK  185  A    between atoms: _437  and  _438
REMARK  186  A    between atoms: _443  and  _445
REMARK  187  A    between atoms: _445  and  _446
REMARK  188  A    between atoms: _445  and  _448
REMARK  189  A    between atoms: _448  and  _449
REMARK  190  A    between atoms: _455  and  _457
REMARK  191  A    between atoms: _457  and  _458
REMARK  192  A    between atoms: _457  and  _460
REMARK  193  A    between atoms: _460  and  _461
REMARK  194  A    between atoms: _466  and  _467
REMARK  195  A    between atoms: _469  and  _471
REMARK  196  A    between atoms: _471  and  _472
REMARK  197  A    between atoms: _471  and  _474
REMARK  198  A    between atoms: _474  and  _475
REMARK  199  A    between atoms: _478  and  _480
REMARK  200  A    between atoms: _480  and  _481
REMARK  201  A    between atoms: _480  and  _483
REMARK  202  A    between atoms: _483  and  _484
REMARK  203  A    between atoms: _487  and  _489
REMARK  204  A    between atoms: _489  and  _490
REMARK  205  A    between atoms: _489  and  _492
REMARK  206  A    between atoms: _492  and  _493
REMARK  207  A    between atoms: _496  and  _498
REMARK  208  A    between atoms: _498  and  _499
REMARK  209  A    between atoms: _498  and  _501
REMARK  210  A    between atoms: _501  and  _502
REMARK  211  A    between atoms: _507  and  _508
REMARK  212  A    between atoms: _510  and  _512
REMARK  213  A    between atoms: _512  and  _513
REMARK  214  A    between atoms: _512  and  _515
REMARK  215  A    between atoms: _515  and  _516
REMARK  216  A    between atoms: _519  and  _521
REMARK  217  A    between atoms: _521  and  _522
REMARK  218  A    between atoms: _521  and  _524
REMARK  219  A    between atoms: _524  and  _525
REMARK  220  A    between atoms: _525  and  _526
REMARK  221  A    between atoms: _526  and  _527
REMARK  222  A    between atoms: _536  and  _538
REMARK  223  A    between atoms: _538  and  _539
REMARK  224  A    between atoms: _538  and  _541
REMARK  225  A    between atoms: _541  and  _542
REMARK  226  A    between atoms: _548  and  _549
REMARK  227  A    between atoms: _554  and  _556
REMARK  228  A    between atoms: _556  and  _557
REMARK  229  A    between atoms: _556  and  _559
REMARK  230  A    between atoms: _559  and  _560
REMARK  231  A    between atoms: _560  and  _561
REMARK  232  A    between atoms: _563  and  _565
REMARK  233  A    between atoms: _565  and  _566
REMARK  234  A    between atoms: _565  and  _568
REMARK  235  A    between atoms: _571  and  _573
REMARK  236  A    between atoms: _573  and  _574
REMARK  237  A    between atoms: _577  and  _579
REMARK  238  A    between atoms: _579  and  _580
REMARK  239  A    between atoms: _579  and  _582
REMARK  240  A    between atoms: _582  and  _583
REMARK  241  A    between atoms: _586  and  _588
REMARK  242  A    between atoms: _588  and  _589
REMARK  243  A    between atoms: _588  and  _591
REMARK  244  A    between atoms: _591  and  _592
REMARK  245  A    between atoms: _592  and  _593
REMARK  246  A    between atoms: _598  and  _600
REMARK  247  A    between atoms: _600  and  _601
REMARK  248  A    between atoms: _600  and  _603
REMARK  249  A    between atoms: _603  and  _604
REMARK  250  A    between atoms: _607  and  _609
REMARK  251  A    between atoms: _609  and  _610
REMARK  252  A    between atoms: _609  and  _612
REMARK  253  A    between atoms: _614  and  _616
REMARK  254  A    between atoms: _616  and  _617
REMARK  255  A    between atoms: _616  and  _619
REMARK  256  A    between atoms: _619  and  _620
REMARK  257  A    between atoms: _620  and  _621
REMARK  258  A    between atoms: _624  and  _626
REMARK  259  A    between atoms: _626  and  _627
REMARK  260  A    between atoms: _626  and  _629
REMARK  261  A    between atoms: _629  and  _630
REMARK  262  A    between atoms: _630  and  _631
REMARK  263  A    between atoms: _631  and  _632
REMARK  264  A    between atoms: _632  and  _633
REMARK  265  A    between atoms: _637  and  _639
REMARK  266  A    between atoms: _639  and  _640
REMARK  267  A    between atoms: _639  and  _642
REMARK  268  A    between atoms: _642  and  _643
REMARK  269  A    between atoms: _648  and  _650
REMARK  270  A    between atoms: _650  and  _651
REMARK  271  A    between atoms: _650  and  _653
REMARK  272  A    between atoms: _653  and  _654
REMARK  273  A    between atoms: _659  and  _660
REMARK  274  A    between atoms: _662  and  _664
REMARK  275  A    between atoms: _664  and  _665
REMARK  276  A    between atoms: _664  and  _667
REMARK  277  A    between atoms: _667  and  _668
REMARK  278  A    between atoms: _668  and  _669
REMARK  279  A    between atoms: _669  and  _670
REMARK                            x       y       z     vdW  Elec       q    Type
REMARK                         _______ _______ _______ _____ _____    ______ ____
ROOT
ATOM      1  O   HOH     1      15.795   3.864   8.111  0.00  0.00    +0.000 OA
ENDROOT
TORSDOF 0
REMARK  Name = ../refined-set-2016/3t8v/3t8v_pocket.pdb
REMARK  279 active torsions:
REMARK  status: ('A' for Active; 'I' for Inactive)
REMARK    1  A    between atoms: _1  and  _3
REMARK    2  A    between atoms: _3  and  _4
REMARK    3  A    between atoms: _7  and  _9
REMARK    4  A    between atoms: _9  and  _10
REMARK    5  A    between atoms: _9  and  _12
REMARK    6  A    between atoms: _12  and  _13
REMARK    7  A    between atoms: _16  and  _18
REMARK    8  A    between atoms: _18  and  _19
REMARK    9  A    between atoms: _18  and  _21
REMARK   10  A    between atoms: _21  and  _22
REMARK   11  A    between atoms: _25  and  _27
REMARK   12  A    between atoms: _27  and  _28
REMARK   13  A    between atoms: _27  and  _30
REMARK   14  A    between atoms: _30  and  _31
REMARK   15  A    between atoms: _31  and  _32
REMARK   16  A    between atoms: _37  and  _39
REMARK   17  A    between atoms: _39  and  _40
REMARK   18  A    between atoms: _39  and  _42
REMARK   19  A    between atoms: _44  and  _46
REMARK   20  A    between atoms: _46  and  _47
REMARK   21  A    between atoms: _46  and  _49
REMARK   22  A    between atoms: _49  and  _50
REMARK   23  A    between atoms: _50  and  _51
REMARK   24  A    between atoms: _54  and  _56
REMARK   25  A    between atoms: _56  and  _57
REMARK   26  A    between atoms: _60  and  _62
REMARK   27  A    between atoms: _62  and  _63
REMARK   28  A    between atoms: _62  and  _65
REMARK   29  A    between atoms: _65  and  _66
REMARK   30  A    between atoms: _69  and  _71
REMARK   31  A    between atoms: _71  and  _72
REMARK   32  A    between atoms: _74  and  _76
REMARK   33  A    between atoms: _76  and  _77
REMARK   34  A    between atoms: _76  and  _79
REMARK   35  A    between atoms: _79  and  _80
REMARK   36  A    between atoms: _85  and  _86
REMARK   37  A    between atoms: _88  and  _90
REMARK   38  A    between atoms: _90  and  _91
REMARK   39  A    between atoms: _90  and  _93
REMARK   40  A    between atoms: _93  and  _94
REMARK   41  A    between atoms: _100  and  _102
REMARK   42  A    between atoms: _102  and  _103
REMARK   43  A    between atoms: _102  and  _105
REMARK   44  A    between atoms: _105  and  _106
REMARK   45  A    between atoms: _111  and  _113
REMARK   46  A    between atoms: _113  and  _114
REMARK   47  A    between atoms: _113  and  _116
REMARK   48  A    between atoms: _119  and  _121
REMARK   49  A    between atoms: _121  and  _122
REMARK   50  A    between atoms: _124  and  _126
REMARK   51  A    between atoms: _126  and  _127
REMARK   52  A    between atoms: _130  and  _132
REMARK   53  A    between atoms: _132  and  _133
REMARK   54  A    between atoms: _132  and  _135
REMARK   55  A    between atoms: _135  and  _136
REMARK   56  A    between atoms: _136  and  _137
REMARK   57  A    between atoms: _139  and  _141
REMARK   58  A    between atoms: _141  and  _142
REMARK   59  A    between atoms: _141  and  _144
REMARK   60  A    between atoms: _144  and  _145
REMARK   61  A    between atoms: _145  and  _146
REMARK   62  A    between atoms: _149  and  _151
REMARK   63  A    between atoms: _151  and  _152
REMARK   64  A    between atoms: _151  and  _154
REMARK   65  A    between atoms: _154  and  _155
REMARK   66  A    between atoms: _160  and  _162
REMARK   67  A    between atoms: _162  and  _163
REMARK   68  A    between atoms: _162  and  _165
REMARK   69  A    between atoms: _165  and  _166
REMARK   70  A    between atoms: _169  and  _171
REMARK   71  A    between atoms: _171  and  _172
REMARK   72  A    between atoms: _171  and  _174
REMARK   73  A    between atoms: _174  and  _175
REMARK   74  A    between atoms: _181  and  _183
REMARK   75  A    between atoms: _183  and  _184
REMARK   76  A    between atoms: _183  and  _186
REMARK   77  A    between atoms: _186  and  _187
REMARK   78  A    between atoms: _192  and  _194
REMARK   79  A    between atoms: _194  and  _195
REMARK   80  A    between atoms: _194  and  _197
REMARK   81  A    between atoms: _197  and  _198
REMARK   82  A    between atoms: _203  and  _205
REMARK   83  A    between atoms: _205  and  _206
REMARK   84  A    between atoms: _205  and  _208
REMARK   85  A    between atoms: _208  and  _209
REMARK   86  A    between atoms: _211  and  _213
REMARK   87  A    between atoms: _213  and  _214
REMARK   88  A    between atoms: _213  and  _216
REMARK   89  A    between atoms: _216  and  _217
REMARK   90  A    between atoms: _217  and  _218
REMARK   91  A    between atoms: _218  and  _219
REMARK   92  A    between atoms: _228  and  _230
REMARK   93  A    between atoms: _230  and  _231
REMARK   94  A    between atoms: _230  and  _233
REMARK   95  A    between atoms: _233  and  _234
REMARK   96  A    between atoms: _237  and  _239
REMARK   97  A    between atoms: _239  and  _240
REMARK   98  A    between atoms: _239  and  _242
REMARK   99  A    between atoms: _245  and  _247
REMARK  100  A    between atoms: _247  and  _248
REMARK  101  A    between atoms: _247  and  _250
REMARK  102  A    between atoms: _253  and  _255
REMARK  103  A    between atoms: _255  and  _256
REMARK  104  A    between atoms: _258  and  _260
REMARK  105  A    between atoms: _260  and  _261
REMARK  106  A    between atoms: _260  and  _263
REMARK  107  A    between atoms: _263  and  _264
REMARK  108  A    between atoms: _268  and  ZN_679
REMARK  109  A    between atoms: _269  and  _271
REMARK  110  A    between atoms: _271  and  _272
REMARK  111  A    between atoms: _271  and  _274
REMARK  112  A    between atoms: _274  and  _275
REMARK  113  A    between atoms: _275  and  _276
REMARK  114  A    between atoms: _279  and  _281
REMARK  115  A    between atoms: _281  and  _282
REMARK  116  A    between atoms: _281  and  _284
REMARK  117  A    between atoms: _284  and  _285
REMARK  118  A    between atoms: _290  and  _291
REMARK  119  A    between atoms: _293  and  _295
REMARK  120  A    between atoms: _295  and  _296
REMARK  121  A    between atoms: _295  and  _298
REMARK  122  A    between atoms: _298  and  _299
REMARK  123  A    between atoms: _303  and  ZN_679
REMARK  124  A    between atoms: _304  and  _306
REMARK  125  A    between atoms: _306  and  _307
REMARK  126  A    between atoms: _306  and  _309
REMARK  127  A    between atoms: _309  and  _310
REMARK  128  A    between atoms: _320  and  _322
REMARK  129  A    between atoms: _322  and  _323
REMARK  130  A    between atoms: _322  and  _325
REMARK  131  A    between atoms: _325  and  _326
REMARK  132  A    between atoms: _329  and  _331
REMARK  133  A    between atoms: _331  and  _332
REMARK  134  A    between atoms: _331  and  _334
REMARK  135  A    between atoms: _334  and  _335
REMARK  136  A    between atoms: _335  and  _336
REMARK  137  A    between atoms: _336  and  _337
REMARK  138  A    between atoms: _337  and  _338
REMARK  139  A    between atoms: _342  and  _344
REMARK  140  A    between atoms: _344  and  _345
REMARK  141  A    between atoms: _344  and  _347
REMARK  142  A    between atoms: _347  and  _348
REMARK  143  A    between atoms: _348  and  _349
REMARK  144  A    between atoms: _349  and  _350
REMARK  145  A    between atoms: _350  and  ZN_679
REMARK  146  A    between atoms: _352  and  _354
REMARK  147  A    between atoms: _354  and  _355
REMARK  148  A    between atoms: _354  and  _357
REMARK  149  A    between atoms: _357  and  _358
REMARK  150  A    between atoms: _361  and  _363
REMARK  151  A    between atoms: _363  and  _364
REMARK  152  A    between atoms: _363  and  _366
REMARK  153  A    between atoms: _369  and  _371
REMARK  154  A    between atoms: _371  and  _372
REMARK  155  A    between atoms: _371  and  _374
REMARK  156  A    between atoms: _374  and  _375
REMARK  157  A    between atoms: _375  and  _376
REMARK  158  A    between atoms: _379  and  _381
REMARK  159  A    between atoms: _381  and  _382
REMARK  160  A    between atoms: _381  and  _384
REMARK  161  A    between atoms: _384  and  _385
REMARK  162  A    between atoms: _385  and  _386
REMARK  163  A    between atoms: _389  and  _391
REMARK  164  A    between atoms: _391  and  _392
REMARK  165  A    between atoms: _391  and  _394
REMARK  166  A    between atoms: _394  and  _395
REMARK  167  A    between atoms: _398  and  _400
REMARK  168  A    between atoms: _400  and  _401
REMARK  169  A    between atoms: _400  and  _403
REMARK  170  A    between atoms: _403  and  _404
REMARK  171  A    between atoms: _409  and  _411
REMARK  172  A    between atoms: _411  and  _412
REMARK  173  A    between atoms: _411  and  _414
REMARK  174  A    between atoms: _414  and  _415
REMARK  175  A    between atoms: _417  and  _419
REMARK  176  A    between atoms: _419  and  _420
REMARK  177  A    between atoms: _419  and  _422
REMARK  178  A    between atoms: _422  and  _423
REMARK  179  A    between atoms: _423  and  _424
REMARK  180  A    between atoms: _426  and  _428
REMARK  181  A    between atoms: _428  and  _429
REMARK  182  A    between atoms: _432  and  _434
REMARK  183  A    between atoms: _434  and  _435
REMARK  184  A    between atoms: _434  and  _437
REMARK  185  A    between atoms: _437  and  _438
REMARK  186  A    between atoms: _443  and  _445
REMARK  187  A    between atoms: _445  and  _446
REMARK  188  A    between atoms: _445  and  _448
REMARK  189  A    between atoms: _448  and  _449
REMARK  190  A    between atoms: _455  and  _457
REMARK  191  A    between atoms: _457  and  _458
REMARK  192  A    between atoms: _457  and  _460
REMARK  193  A    between atoms: _460  and  _461
REMARK  194  A    between atoms: _466  and  _467
REMARK  195  A    between atoms: _469  and  _471
REMARK  196  A    between atoms: _471  and  _472
REMARK  197  A    between atoms: _471  and  _474
REMARK  198  A    between atoms: _474  and  _475
REMARK  199  A    between atoms: _478  and  _480
REMARK  200  A    between atoms: _480  and  _481
REMARK  201  A    between atoms: _480  and  _483
REMARK  202  A    between atoms: _483  and  _484
REMARK  203  A    between atoms: _487  and  _489
REMARK  204  A    between atoms: _489  and  _490
REMARK  205  A    between atoms: _489  and  _492
REMARK  206  A    between atoms: _492  and  _493
REMARK  207  A    between atoms: _496  and  _498
REMARK  208  A    between atoms: _498  and  _499
REMARK  209  A    between atoms: _498  and  _501
REMARK  210  A    between atoms: _501  and  _502
REMARK  211  A    between atoms: _507  and  _508
REMARK  212  A    between atoms: _510  and  _512
REMARK  213  A    between atoms: _512  and  _513
REMARK  214  A    between atoms: _512  and  _515
REMARK  215  A    between atoms: _515  and  _516
REMARK  216  A    between atoms: _519  and  _521
REMARK  217  A    between atoms: _521  and  _522
REMARK  218  A    between atoms: _521  and  _524
REMARK  219  A    between atoms: _524  and  _525
REMARK  220  A    between atoms: _525  and  _526
REMARK  221  A    between atoms: _526  and  _527
REMARK  222  A    between atoms: _536  and  _538
REMARK  223  A    between atoms: _538  and  _539
REMARK  224  A    between atoms: _538  and  _541
REMARK  225  A    between atoms: _541  and  _542
REMARK  226  A    between atoms: _548  and  _549
REMARK  227  A    between atoms: _554  and  _556
REMARK  228  A    between atoms: _556  and  _557
REMARK  229  A    between atoms: _556  and  _559
REMARK  230  A    between atoms: _559  and  _560
REMARK  231  A    between atoms: _560  and  _561
REMARK  232  A    between atoms: _563  and  _565
REMARK  233  A    between atoms: _565  and  _566
REMARK  234  A    between atoms: _565  and  _568
REMARK  235  A    between atoms: _571  and  _573
REMARK  236  A    between atoms: _573  and  _574
REMARK  237  A    between atoms: _577  and  _579
REMARK  238  A    between atoms: _579  and  _580
REMARK  239  A    between atoms: _579  and  _582
REMARK  240  A    between atoms: _582  and  _583
REMARK  241  A    between atoms: _586  and  _588
REMARK  242  A    between atoms: _588  and  _589
REMARK  243  A    between atoms: _588  and  _591
REMARK  244  A    between atoms: _591  and  _592
REMARK  245  A    between atoms: _592  and  _593
REMARK  246  A    between atoms: _598  and  _600
REMARK  247  A    between atoms: _600  and  _601
REMARK  248  A    between atoms: _600  and  _603
REMARK  249  A    between atoms: _603  and  _604
REMARK  250  A    between atoms: _607  and  _609
REMARK  251  A    between atoms: _609  and  _610
REMARK  252  A    between atoms: _609  and  _612
REMARK  253  A    between atoms: _614  and  _616
REMARK  254  A    between atoms: _616  and  _617
REMARK  255  A    between atoms: _616  and  _619
REMARK  256  A    between atoms: _619  and  _620
REMARK  257  A    between atoms: _620  and  _621
REMARK  258  A    between atoms: _624  and  _626
REMARK  259  A    between atoms: _626  and  _627
REMARK  260  A    between atoms: _626  and  _629
REMARK  261  A    between atoms: _629  and  _630
REMARK  262  A    between atoms: _630  and  _631
REMARK  263  A    between atoms: _631  and  _632
REMARK  264  A    between atoms: _632  and  _633
REMARK  265  A    between atoms: _637  and  _639
REMARK  266  A    between atoms: _639  and  _640
REMARK  267  A    between atoms: _639  and  _642
REMARK  268  A    between atoms: _642  and  _643
REMARK  269  A    between atoms: _648  and  _650
REMARK  270  A    between atoms: _650  and  _651
REMARK  271  A    between atoms: _650  and  _653
REMARK  272  A    between atoms: _653  and  _654
REMARK  273  A    between atoms: _659  and  _660
REMARK  274  A    between atoms: _662  and  _664
REMARK  275  A    between atoms: _664  and  _665
REMARK  276  A    between atoms: _664  and  _667
REMARK  277  A    between atoms: _667  and  _668
REMARK  278  A    between atoms: _668  and  _669
REMARK  279  A    between atoms: _669  and  _670
REMARK                            x       y       z     vdW  Elec       q    Type
REMARK                         _______ _______ _______ _____ _____    ______ ____
ROOT
ATOM      1  O   HOH     1      10.364  14.792  24.946  0.00  0.00    +0.000 OA
ENDROOT
TORSDOF 0
REMARK  Name = ../refined-set-2016/3t8v/3t8v_pocket.pdb
REMARK  279 active torsions:
REMARK  status: ('A' for Active; 'I' for Inactive)
REMARK    1  A    between atoms: _1  and  _3
REMARK    2  A    between atoms: _3  and  _4
REMARK    3  A    between atoms: _7  and  _9
REMARK    4  A    between atoms: _9  and  _10
REMARK    5  A    between atoms: _9  and  _12
REMARK    6  A    between atoms: _12  and  _13
REMARK    7  A    between atoms: _16  and  _18
REMARK    8  A    between atoms: _18  and  _19
REMARK    9  A    between atoms: _18  and  _21
REMARK   10  A    between atoms: _21  and  _22
REMARK   11  A    between atoms: _25  and  _27
REMARK   12  A    between atoms: _27  and  _28
REMARK   13  A    between atoms: _27  and  _30
REMARK   14  A    between atoms: _30  and  _31
REMARK   15  A    between atoms: _31  and  _32
REMARK   16  A    between atoms: _37  and  _39
REMARK   17  A    between atoms: _39  and  _40
REMARK   18  A    between atoms: _39  and  _42
REMARK   19  A    between atoms: _44  and  _46
REMARK   20  A    between atoms: _46  and  _47
REMARK   21  A    between atoms: _46  and  _49
REMARK   22  A    between atoms: _49  and  _50
REMARK   23  A    between atoms: _50  and  _51
REMARK   24  A    between atoms: _54  and  _56
REMARK   25  A    between atoms: _56  and  _57
REMARK   26  A    between atoms: _60  and  _62
REMARK   27  A    between atoms: _62  and  _63
REMARK   28  A    between atoms: _62  and  _65
REMARK   29  A    between atoms: _65  and  _66
REMARK   30  A    between atoms: _69  and  _71
REMARK   31  A    between atoms: _71  and  _72
REMARK   32  A    between atoms: _74  and  _76
REMARK   33  A    between atoms: _76  and  _77
REMARK   34  A    between atoms: _76  and  _79
REMARK   35  A    between atoms: _79  and  _80
REMARK   36  A    between atoms: _85  and  _86
REMARK   37  A    between atoms: _88  and  _90
REMARK   38  A    between atoms: _90  and  _91
REMARK   39  A    between atoms: _90  and  _93
REMARK   40  A    between atoms: _93  and  _94
REMARK   41  A    between atoms: _100  and  _102
REMARK   42  A    between atoms: _102  and  _103
REMARK   43  A    between atoms: _102  and  _105
REMARK   44  A    between atoms: _105  and  _106
REMARK   45  A    between atoms: _111  and  _113
REMARK   46  A    between atoms: _113  and  _114
REMARK   47  A    between atoms: _113  and  _116
REMARK   48  A    between atoms: _119  and  _121
REMARK   49  A    between atoms: _121  and  _122
REMARK   50  A    between atoms: _124  and  _126
REMARK   51  A    between atoms: _126  and  _127
REMARK   52  A    between atoms: _130  and  _132
REMARK   53  A    between atoms: _132  and  _133
REMARK   54  A    between atoms: _132  and  _135
REMARK   55  A    between atoms: _135  and  _136
REMARK   56  A    between atoms: _136  and  _137
REMARK   57  A    between atoms: _139  and  _141
REMARK   58  A    between atoms: _141  and  _142
REMARK   59  A    between atoms: _141  and  _144
REMARK   60  A    between atoms: _144  and  _145
REMARK   61  A    between atoms: _145  and  _146
REMARK   62  A    between atoms: _149  and  _151
REMARK   63  A    between atoms: _151  and  _152
REMARK   64  A    between atoms: _151  and  _154
REMARK   65  A    between atoms: _154  and  _155
REMARK   66  A    between atoms: _160  and  _162
REMARK   67  A    between atoms: _162  and  _163
REMARK   68  A    between atoms: _162  and  _165
REMARK   69  A    between atoms: _165  and  _166
REMARK   70  A    between atoms: _169  and  _171
REMARK   71  A    between atoms: _171  and  _172
REMARK   72  A    between atoms: _171  and  _174
REMARK   73  A    between atoms: _174  and  _175
REMARK   74  A    between atoms: _181  and  _183
REMARK   75  A    between atoms: _183  and  _184
REMARK   76  A    between atoms: _183  and  _186
REMARK   77  A    between atoms: _186  and  _187
REMARK   78  A    between atoms: _192  and  _194
REMARK   79  A    between atoms: _194  and  _195
REMARK   80  A    between atoms: _194  and  _197
REMARK   81  A    between atoms: _197  and  _198
REMARK   82  A    between atoms: _203  and  _205
REMARK   83  A    between atoms: _205  and  _206
REMARK   84  A    between atoms: _205  and  _208
REMARK   85  A    between atoms: _208  and  _209
REMARK   86  A    between atoms: _211  and  _213
REMARK   87  A    between atoms: _213  and  _214
REMARK   88  A    between atoms: _213  and  _216
REMARK   89  A    between atoms: _216  and  _217
REMARK   90  A    between atoms: _217  and  _218
REMARK   91  A    between atoms: _218  and  _219
REMARK   92  A    between atoms: _228  and  _230
REMARK   93  A    between atoms: _230  and  _231
REMARK   94  A    between atoms: _230  and  _233
REMARK   95  A    between atoms: _233  and  _234
REMARK   96  A    between atoms: _237  and  _239
REMARK   97  A    between atoms: _239  and  _240
REMARK   98  A    between atoms: _239  and  _242
REMARK   99  A    between atoms: _245  and  _247
REMARK  100  A    between atoms: _247  and  _248
REMARK  101  A    between atoms: _247  and  _250
REMARK  102  A    between atoms: _253  and  _255
REMARK  103  A    between atoms: _255  and  _256
REMARK  104  A    between atoms: _258  and  _260
REMARK  105  A    between atoms: _260  and  _261
REMARK  106  A    between atoms: _260  and  _263
REMARK  107  A    between atoms: _263  and  _264
REMARK  108  A    between atoms: _268  and  ZN_679
REMARK  109  A    between atoms: _269  and  _271
REMARK  110  A    between atoms: _271  and  _272
REMARK  111  A    between atoms: _271  and  _274
REMARK  112  A    between atoms: _274  and  _275
REMARK  113  A    between atoms: _275  and  _276
REMARK  114  A    between atoms: _279  and  _281
REMARK  115  A    between atoms: _281  and  _282
REMARK  116  A    between atoms: _281  and  _284
REMARK  117  A    between atoms: _284  and  _285
REMARK  118  A    between atoms: _290  and  _291
REMARK  119  A    between atoms: _293  and  _295
REMARK  120  A    between atoms: _295  and  _296
REMARK  121  A    between atoms: _295  and  _298
REMARK  122  A    between atoms: _298  and  _299
REMARK  123  A    between atoms: _303  and  ZN_679
REMARK  124  A    between atoms: _304  and  _306
REMARK  125  A    between atoms: _306  and  _307
REMARK  126  A    between atoms: _306  and  _309
REMARK  127  A    between atoms: _309  and  _310
REMARK  128  A    between atoms: _320  and  _322
REMARK  129  A    between atoms: _322  and  _323
REMARK  130  A    between atoms: _322  and  _325
REMARK  131  A    between atoms: _325  and  _326
REMARK  132  A    between atoms: _329  and  _331
REMARK  133  A    between atoms: _331  and  _332
REMARK  134  A    between atoms: _331  and  _334
REMARK  135  A    between atoms: _334  and  _335
REMARK  136  A    between atoms: _335  and  _336
REMARK  137  A    between atoms: _336  and  _337
REMARK  138  A    between atoms: _337  and  _338
REMARK  139  A    between atoms: _342  and  _344
REMARK  140  A    between atoms: _344  and  _345
REMARK  141  A    between atoms: _344  and  _347
REMARK  142  A    between atoms: _347  and  _348
REMARK  143  A    between atoms: _348  and  _349
REMARK  144  A    between atoms: _349  and  _350
REMARK  145  A    between atoms: _350  and  ZN_679
REMARK  146  A    between atoms: _352  and  _354
REMARK  147  A    between atoms: _354  and  _355
REMARK  148  A    between atoms: _354  and  _357
REMARK  149  A    between atoms: _357  and  _358
REMARK  150  A    between atoms: _361  and  _363
REMARK  151  A    between atoms: _363  and  _364
REMARK  152  A    between atoms: _363  and  _366
REMARK  153  A    between atoms: _369  and  _371
REMARK  154  A    between atoms: _371  and  _372
REMARK  155  A    between atoms: _371  and  _374
REMARK  156  A    between atoms: _374  and  _375
REMARK  157  A    between atoms: _375  and  _376
REMARK  158  A    between atoms: _379  and  _381
REMARK  159  A    between atoms: _381  and  _382
REMARK  160  A    between atoms: _381  and  _384
REMARK  161  A    between atoms: _384  and  _385
REMARK  162  A    between atoms: _385  and  _386
REMARK  163  A    between atoms: _389  and  _391
REMARK  164  A    between atoms: _391  and  _392
REMARK  165  A    between atoms: _391  and  _394
REMARK  166  A    between atoms: _394  and  _395
REMARK  167  A    between atoms: _398  and  _400
REMARK  168  A    between atoms: _400  and  _401
REMARK  169  A    between atoms: _400  and  _403
REMARK  170  A    between atoms: _403  and  _404
REMARK  171  A    between atoms: _409  and  _411
REMARK  172  A    between atoms: _411  and  _412
REMARK  173  A    between atoms: _411  and  _414
REMARK  174  A    between atoms: _414  and  _415
REMARK  175  A    between atoms: _417  and  _419
REMARK  176  A    between atoms: _419  and  _420
REMARK  177  A    between atoms: _419  and  _422
REMARK  178  A    between atoms: _422  and  _423
REMARK  179  A    between atoms: _423  and  _424
REMARK  180  A    between atoms: _426  and  _428
REMARK  181  A    between atoms: _428  and  _429
REMARK  182  A    between atoms: _432  and  _434
REMARK  183  A    between atoms: _434  and  _435
REMARK  184  A    between atoms: _434  and  _437
REMARK  185  A    between atoms: _437  and  _438
REMARK  186  A    between atoms: _443  and  _445
REMARK  187  A    between atoms: _445  and  _446
REMARK  188  A    between atoms: _445  and  _448
REMARK  189  A    between atoms: _448  and  _449
REMARK  190  A    between atoms: _455  and  _457
REMARK  191  A    between atoms: _457  and  _458
REMARK  192  A    between atoms: _457  and  _460
REMARK  193  A    between atoms: _460  and  _461
REMARK  194  A    between atoms: _466  and  _467
REMARK  195  A    between atoms: _469  and  _471
REMARK  196  A    between atoms: _471  and  _472
REMARK  197  A    between atoms: _471  and  _474
REMARK  198  A    between atoms: _474  and  _475
REMARK  199  A    between atoms: _478  and  _480
REMARK  200  A    between atoms: _480  and  _481
REMARK  201  A    between atoms: _480  and  _483
REMARK  202  A    between atoms: _483  and  _484
REMARK  203  A    between atoms: _487  and  _489
REMARK  204  A    between atoms: _489  and  _490
REMARK  205  A    between atoms: _489  and  _492
REMARK  206  A    between atoms: _492  and  _493
REMARK  207  A    between atoms: _496  and  _498
REMARK  208  A    between atoms: _498  and  _499
REMARK  209  A    between atoms: _498  and  _501
REMARK  210  A    between atoms: _501  and  _502
REMARK  211  A    between atoms: _507  and  _508
REMARK  212  A    between atoms: _510  and  _512
REMARK  213  A    between atoms: _512  and  _513
REMARK  214  A    between atoms: _512  and  _515
REMARK  215  A    between atoms: _515  and  _516
REMARK  216  A    between atoms: _519  and  _521
REMARK  217  A    between atoms: _521  and  _522
REMARK  218  A    between atoms: _521  and  _524
REMARK  219  A    between atoms: _524  and  _525
REMARK  220  A    between atoms: _525  and  _526
REMARK  221  A    between atoms: _526  and  _527
REMARK  222  A    between atoms: _536  and  _538
REMARK  223  A    between atoms: _538  and  _539
REMARK  224  A    between atoms: _538  and  _541
REMARK  225  A    between atoms: _541  and  _542
REMARK  226  A    between atoms: _548  and  _549
REMARK  227  A    between atoms: _554  and  _556
REMARK  228  A    between atoms: _556  and  _557
REMARK  229  A    between atoms: _556  and  _559
REMARK  230  A    between atoms: _559  and  _560
REMARK  231  A    between atoms: _560  and  _561
REMARK  232  A    between atoms: _563  and  _565
REMARK  233  A    between atoms: _565  and  _566
REMARK  234  A    between atoms: _565  and  _568
REMARK  235  A    between atoms: _571  and  _573
REMARK  236  A    between atoms: _573  and  _574
REMARK  237  A    between atoms: _577  and  _579
REMARK  238  A    between atoms: _579  and  _580
REMARK  239  A    between atoms: _579  and  _582
REMARK  240  A    between atoms: _582  and  _583
REMARK  241  A    between atoms: _586  and  _588
REMARK  242  A    between atoms: _588  and  _589
REMARK  243  A    between atoms: _588  and  _591
REMARK  244  A    between atoms: _591  and  _592
REMARK  245  A    between atoms: _592  and  _593
REMARK  246  A    between atoms: _598  and  _600
REMARK  247  A    between atoms: _600  and  _601
REMARK  248  A    between atoms: _600  and  _603
REMARK  249  A    between atoms: _603  and  _604
REMARK  250  A    between atoms: _607  and  _609
REMARK  251  A    between atoms: _609  and  _610
REMARK  252  A    between atoms: _609  and  _612
REMARK  253  A    between atoms: _614  and  _616
REMARK  254  A    between atoms: _616  and  _617
REMARK  255  A    between atoms: _616  and  _619
REMARK  256  A    between atoms: _619  and  _620
REMARK  257  A    between atoms: _620  and  _621
REMARK  258  A    between atoms: _624  and  _626
REMARK  259  A    between atoms: _626  and  _627
REMARK  260  A    between atoms: _626  and  _629
REMARK  261  A    between atoms: _629  and  _630
REMARK  262  A    between atoms: _630  and  _631
REMARK  263  A    between atoms: _631  and  _632
REMARK  264  A    between atoms: _632  and  _633
REMARK  265  A    between atoms: _637  and  _639
REMARK  266  A    between atoms: _639  and  _640
REMARK  267  A    between atoms: _639  and  _642
REMARK  268  A    between atoms: _642  and  _643
REMARK  269  A    between atoms: _648  and  _650
REMARK  270  A    between atoms: _650  and  _651
REMARK  271  A    between atoms: _650  and  _653
REMARK  272  A    between atoms: _653  and  _654
REMARK  273  A    between atoms: _659  and  _660
REMARK  274  A    between atoms: _662  and  _664
REMARK  275  A    between atoms: _664  and  _665
REMARK  276  A    between atoms: _664  and  _667
REMARK  277  A    between atoms: _667  and  _668
REMARK  278  A    between atoms: _668  and  _669
REMARK  279  A    between atoms: _669  and  _670
REMARK                            x       y       z     vdW  Elec       q    Type
REMARK                         _______ _______ _______ _____ _____    ______ ____
ROOT
ATOM      1  O   HOH     1      22.101   5.857   6.813  0.00  0.00    +0.000 OA
ENDROOT
TORSDOF 0
REMARK  Name = ../refined-set-2016/3t8v/3t8v_pocket.pdb
REMARK  279 active torsions:
REMARK  status: ('A' for Active; 'I' for Inactive)
REMARK    1  A    between atoms: _1  and  _3
REMARK    2  A    between atoms: _3  and  _4
REMARK    3  A    between atoms: _7  and  _9
REMARK    4  A    between atoms: _9  and  _10
REMARK    5  A    between atoms: _9  and  _12
REMARK    6  A    between atoms: _12  and  _13
REMARK    7  A    between atoms: _16  and  _18
REMARK    8  A    between atoms: _18  and  _19
REMARK    9  A    between atoms: _18  and  _21
REMARK   10  A    between atoms: _21  and  _22
REMARK   11  A    between atoms: _25  and  _27
REMARK   12  A    between atoms: _27  and  _28
REMARK   13  A    between atoms: _27  and  _30
REMARK   14  A    between atoms: _30  and  _31
REMARK   15  A    between atoms: _31  and  _32
REMARK   16  A    between atoms: _37  and  _39
REMARK   17  A    between atoms: _39  and  _40
REMARK   18  A    between atoms: _39  and  _42
REMARK   19  A    between atoms: _44  and  _46
REMARK   20  A    between atoms: _46  and  _47
REMARK   21  A    between atoms: _46  and  _49
REMARK   22  A    between atoms: _49  and  _50
REMARK   23  A    between atoms: _50  and  _51
REMARK   24  A    between atoms: _54  and  _56
REMARK   25  A    between atoms: _56  and  _57
REMARK   26  A    between atoms: _60  and  _62
REMARK   27  A    between atoms: _62  and  _63
REMARK   28  A    between atoms: _62  and  _65
REMARK   29  A    between atoms: _65  and  _66
REMARK   30  A    between atoms: _69  and  _71
REMARK   31  A    between atoms: _71  and  _72
REMARK   32  A    between atoms: _74  and  _76
REMARK   33  A    between atoms: _76  and  _77
REMARK   34  A    between atoms: _76  and  _79
REMARK   35  A    between atoms: _79  and  _80
REMARK   36  A    between atoms: _85  and  _86
REMARK   37  A    between atoms: _88  and  _90
REMARK   38  A    between atoms: _90  and  _91
REMARK   39  A    between atoms: _90  and  _93
REMARK   40  A    between atoms: _93  and  _94
REMARK   41  A    between atoms: _100  and  _102
REMARK   42  A    between atoms: _102  and  _103
REMARK   43  A    between atoms: _102  and  _105
REMARK   44  A    between atoms: _105  and  _106
REMARK   45  A    between atoms: _111  and  _113
REMARK   46  A    between atoms: _113  and  _114
REMARK   47  A    between atoms: _113  and  _116
REMARK   48  A    between atoms: _119  and  _121
REMARK   49  A    between atoms: _121  and  _122
REMARK   50  A    between atoms: _124  and  _126
REMARK   51  A    between atoms: _126  and  _127
REMARK   52  A    between atoms: _130  and  _132
REMARK   53  A    between atoms: _132  and  _133
REMARK   54  A    between atoms: _132  and  _135
REMARK   55  A    between atoms: _135  and  _136
REMARK   56  A    between atoms: _136  and  _137
REMARK   57  A    between atoms: _139  and  _141
REMARK   58  A    between atoms: _141  and  _142
REMARK   59  A    between atoms: _141  and  _144
REMARK   60  A    between atoms: _144  and  _145
REMARK   61  A    between atoms: _145  and  _146
REMARK   62  A    between atoms: _149  and  _151
REMARK   63  A    between atoms: _151  and  _152
REMARK   64  A    between atoms: _151  and  _154
REMARK   65  A    between atoms: _154  and  _155
REMARK   66  A    between atoms: _160  and  _162
REMARK   67  A    between atoms: _162  and  _163
REMARK   68  A    between atoms: _162  and  _165
REMARK   69  A    between atoms: _165  and  _166
REMARK   70  A    between atoms: _169  and  _171
REMARK   71  A    between atoms: _171  and  _172
REMARK   72  A    between atoms: _171  and  _174
REMARK   73  A    between atoms: _174  and  _175
REMARK   74  A    between atoms: _181  and  _183
REMARK   75  A    between atoms: _183  and  _184
REMARK   76  A    between atoms: _183  and  _186
REMARK   77  A    between atoms: _186  and  _187
REMARK   78  A    between atoms: _192  and  _194
REMARK   79  A    between atoms: _194  and  _195
REMARK   80  A    between atoms: _194  and  _197
REMARK   81  A    between atoms: _197  and  _198
REMARK   82  A    between atoms: _203  and  _205
REMARK   83  A    between atoms: _205  and  _206
REMARK   84  A    between atoms: _205  and  _208
REMARK   85  A    between atoms: _208  and  _209
REMARK   86  A    between atoms: _211  and  _213
REMARK   87  A    between atoms: _213  and  _214
REMARK   88  A    between atoms: _213  and  _216
REMARK   89  A    between atoms: _216  and  _217
REMARK   90  A    between atoms: _217  and  _218
REMARK   91  A    between atoms: _218  and  _219
REMARK   92  A    between atoms: _228  and  _230
REMARK   93  A    between atoms: _230  and  _231
REMARK   94  A    between atoms: _230  and  _233
REMARK   95  A    between atoms: _233  and  _234
REMARK   96  A    between atoms: _237  and  _239
REMARK   97  A    between atoms: _239  and  _240
REMARK   98  A    between atoms: _239  and  _242
REMARK   99  A    between atoms: _245  and  _247
REMARK  100  A    between atoms: _247  and  _248
REMARK  101  A    between atoms: _247  and  _250
REMARK  102  A    between atoms: _253  and  _255
REMARK  103  A    between atoms: _255  and  _256
REMARK  104  A    between atoms: _258  and  _260
REMARK  105  A    between atoms: _260  and  _261
REMARK  106  A    between atoms: _260  and  _263
REMARK  107  A    between atoms: _263  and  _264
REMARK  108  A    between atoms: _268  and  ZN_679
REMARK  109  A    between atoms: _269  and  _271
REMARK  110  A    between atoms: _271  and  _272
REMARK  111  A    between atoms: _271  and  _274
REMARK  112  A    between atoms: _274  and  _275
REMARK  113  A    between atoms: _275  and  _276
REMARK  114  A    between atoms: _279  and  _281
REMARK  115  A    between atoms: _281  and  _282
REMARK  116  A    between atoms: _281  and  _284
REMARK  117  A    between atoms: _284  and  _285
REMARK  118  A    between atoms: _290  and  _291
REMARK  119  A    between atoms: _293  and  _295
REMARK  120  A    between atoms: _295  and  _296
REMARK  121  A    between atoms: _295  and  _298
REMARK  122  A    between atoms: _298  and  _299
REMARK  123  A    between atoms: _303  and  ZN_679
REMARK  124  A    between atoms: _304  and  _306
REMARK  125  A    between atoms: _306  and  _307
REMARK  126  A    between atoms: _306  and  _309
REMARK  127  A    between atoms: _309  and  _310
REMARK  128  A    between atoms: _320  and  _322
REMARK  129  A    between atoms: _322  and  _323
REMARK  130  A    between atoms: _322  and  _325
REMARK  131  A    between atoms: _325  and  _326
REMARK  132  A    between atoms: _329  and  _331
REMARK  133  A    between atoms: _331  and  _332
REMARK  134  A    between atoms: _331  and  _334
REMARK  135  A    between atoms: _334  and  _335
REMARK  136  A    between atoms: _335  and  _336
REMARK  137  A    between atoms: _336  and  _337
REMARK  138  A    between atoms: _337  and  _338
REMARK  139  A    between atoms: _342  and  _344
REMARK  140  A    between atoms: _344  and  _345
REMARK  141  A    between atoms: _344  and  _347
REMARK  142  A    between atoms: _347  and  _348
REMARK  143  A    between atoms: _348  and  _349
REMARK  144  A    between atoms: _349  and  _350
REMARK  145  A    between atoms: _350  and  ZN_679
REMARK  146  A    between atoms: _352  and  _354
REMARK  147  A    between atoms: _354  and  _355
REMARK  148  A    between atoms: _354  and  _357
REMARK  149  A    between atoms: _357  and  _358
REMARK  150  A    between atoms: _361  and  _363
REMARK  151  A    between atoms: _363  and  _364
REMARK  152  A    between atoms: _363  and  _366
REMARK  153  A    between atoms: _369  and  _371
REMARK  154  A    between atoms: _371  and  _372
REMARK  155  A    between atoms: _371  and  _374
REMARK  156  A    between atoms: _374  and  _375
REMARK  157  A    between atoms: _375  and  _376
REMARK  158  A    between atoms: _379  and  _381
REMARK  159  A    between atoms: _381  and  _382
REMARK  160  A    between atoms: _381  and  _384
REMARK  161  A    between atoms: _384  and  _385
REMARK  162  A    between atoms: _385  and  _386
REMARK  163  A    between atoms: _389  and  _391
REMARK  164  A    between atoms: _391  and  _392
REMARK  165  A    between atoms: _391  and  _394
REMARK  166  A    between atoms: _394  and  _395
REMARK  167  A    between atoms: _398  and  _400
REMARK  168  A    between atoms: _400  and  _401
REMARK  169  A    between atoms: _400  and  _403
REMARK  170  A    between atoms: _403  and  _404
REMARK  171  A    between atoms: _409  and  _411
REMARK  172  A    between atoms: _411  and  _412
REMARK  173  A    between atoms: _411  and  _414
REMARK  174  A    between atoms: _414  and  _415
REMARK  175  A    between atoms: _417  and  _419
REMARK  176  A    between atoms: _419  and  _420
REMARK  177  A    between atoms: _419  and  _422
REMARK  178  A    between atoms: _422  and  _423
REMARK  179  A    between atoms: _423  and  _424
REMARK  180  A    between atoms: _426  and  _428
REMARK  181  A    between atoms: _428  and  _429
REMARK  182  A    between atoms: _432  and  _434
REMARK  183  A    between atoms: _434  and  _435
REMARK  184  A    between atoms: _434  and  _437
REMARK  185  A    between atoms: _437  and  _438
REMARK  186  A    between atoms: _443  and  _445
REMARK  187  A    between atoms: _445  and  _446
REMARK  188  A    between atoms: _445  and  _448
REMARK  189  A    between atoms: _448  and  _449
REMARK  190  A    between atoms: _455  and  _457
REMARK  191  A    between atoms: _457  and  _458
REMARK  192  A    between atoms: _457  and  _460
REMARK  193  A    between atoms: _460  and  _461
REMARK  194  A    between atoms: _466  and  _467
REMARK  195  A    between atoms: _469  and  _471
REMARK  196  A    between atoms: _471  and  _472
REMARK  197  A    between atoms: _471  and  _474
REMARK  198  A    between atoms: _474  and  _475
REMARK  199  A    between atoms: _478  and  _480
REMARK  200  A    between atoms: _480  and  _481
REMARK  201  A    between atoms: _480  and  _483
REMARK  202  A    between atoms: _483  and  _484
REMARK  203  A    between atoms: _487  and  _489
REMARK  204  A    between atoms: _489  and  _490
REMARK  205  A    between atoms: _489  and  _492
REMARK  206  A    between atoms: _492  and  _493
REMARK  207  A    between atoms: _496  and  _498
REMARK  208  A    between atoms: _498  and  _499
REMARK  209  A    between atoms: _498  and  _501
REMARK  210  A    between atoms: _501  and  _502
REMARK  211  A    between atoms: _507  and  _508
REMARK  212  A    between atoms: _510  and  _512
REMARK  213  A    between atoms: _512  and  _513
REMARK  214  A    between atoms: _512  and  _515
REMARK  215  A    between atoms: _515  and  _516
REMARK  216  A    between atoms: _519  and  _521
REMARK  217  A    between atoms: _521  and  _522
REMARK  218  A    between atoms: _521  and  _524
REMARK  219  A    between atoms: _524  and  _525
REMARK  220  A    between atoms: _525  and  _526
REMARK  221  A    between atoms: _526  and  _527
REMARK  222  A    between atoms: _536  and  _538
REMARK  223  A    between atoms: _538  and  _539
REMARK  224  A    between atoms: _538  and  _541
REMARK  225  A    between atoms: _541  and  _542
REMARK  226  A    between atoms: _548  and  _549
REMARK  227  A    between atoms: _554  and  _556
REMARK  228  A    between atoms: _556  and  _557
REMARK  229  A    between atoms: _556  and  _559
REMARK  230  A    between atoms: _559  and  _560
REMARK  231  A    between atoms: _560  and  _561
REMARK  232  A    between atoms: _563  and  _565
REMARK  233  A    between atoms: _565  and  _566
REMARK  234  A    between atoms: _565  and  _568
REMARK  235  A    between atoms: _571  and  _573
REMARK  236  A    between atoms: _573  and  _574
REMARK  237  A    between atoms: _577  and  _579
REMARK  238  A    between atoms: _579  and  _580
REMARK  239  A    between atoms: _579  and  _582
REMARK  240  A    between atoms: _582  and  _583
REMARK  241  A    between atoms: _586  and  _588
REMARK  242  A    between atoms: _588  and  _589
REMARK  243  A    between atoms: _588  and  _591
REMARK  244  A    between atoms: _591  and  _592
REMARK  245  A    between atoms: _592  and  _593
REMARK  246  A    between atoms: _598  and  _600
REMARK  247  A    between atoms: _600  and  _601
REMARK  248  A    between atoms: _600  and  _603
REMARK  249  A    between atoms: _603  and  _604
REMARK  250  A    between atoms: _607  and  _609
REMARK  251  A    between atoms: _609  and  _610
REMARK  252  A    between atoms: _609  and  _612
REMARK  253  A    between atoms: _614  and  _616
REMARK  254  A    between atoms: _616  and  _617
REMARK  255  A    between atoms: _616  and  _619
REMARK  256  A    between atoms: _619  and  _620
REMARK  257  A    between atoms: _620  and  _621
REMARK  258  A    between atoms: _624  and  _626
REMARK  259  A    between atoms: _626  and  _627
REMARK  260  A    between atoms: _626  and  _629
REMARK  261  A    between atoms: _629  and  _630
REMARK  262  A    between atoms: _630  and  _631
REMARK  263  A    between atoms: _631  and  _632
REMARK  264  A    between atoms: _632  and  _633
REMARK  265  A    between atoms: _637  and  _639
REMARK  266  A    between atoms: _639  and  _640
REMARK  267  A    between atoms: _639  and  _642
REMARK  268  A    between atoms: _642  and  _643
REMARK  269  A    between atoms: _648  and  _650
REMARK  270  A    between atoms: _650  and  _651
REMARK  271  A    between atoms: _650  and  _653
REMARK  272  A    between atoms: _653  and  _654
REMARK  273  A    between atoms: _659  and  _660
REMARK  274  A    between atoms: _662  and  _664
REMARK  275  A    between atoms: _664  and  _665
REMARK  276  A    between atoms: _664  and  _667
REMARK  277  A    between atoms: _667  and  _668
REMARK  278  A    between atoms: _668  and  _669
REMARK  279  A    between atoms: _669  and  _670
REMARK                            x       y       z     vdW  Elec       q    Type
REMARK                         _______ _______ _______ _____ _____    ______ ____
ROOT
ATOM      1  O   HOH     1      12.524  14.498  21.597  0.00  0.00    +0.000 OA
ENDROOT
TORSDOF 0
REMARK  Name = ../refined-set-2016/3t8v/3t8v_pocket.pdb
REMARK  279 active torsions:
REMARK  status: ('A' for Active; 'I' for Inactive)
REMARK    1  A    between atoms: _1  and  _3
REMARK    2  A    between atoms: _3  and  _4
REMARK    3  A    between atoms: _7  and  _9
REMARK    4  A    between atoms: _9  and  _10
REMARK    5  A    between atoms: _9  and  _12
REMARK    6  A    between atoms: _12  and  _13
REMARK    7  A    between atoms: _16  and  _18
REMARK    8  A    between atoms: _18  and  _19
REMARK    9  A    between atoms: _18  and  _21
REMARK   10  A    between atoms: _21  and  _22
REMARK   11  A    between atoms: _25  and  _27
REMARK   12  A    between atoms: _27  and  _28
REMARK   13  A    between atoms: _27  and  _30
REMARK   14  A    between atoms: _30  and  _31
REMARK   15  A    between atoms: _31  and  _32
REMARK   16  A    between atoms: _37  and  _39
REMARK   17  A    between atoms: _39  and  _40
REMARK   18  A    between atoms: _39  and  _42
REMARK   19  A    between atoms: _44  and  _46
REMARK   20  A    between atoms: _46  and  _47
REMARK   21  A    between atoms: _46  and  _49
REMARK   22  A    between atoms: _49  and  _50
REMARK   23  A    between atoms: _50  and  _51
REMARK   24  A    between atoms: _54  and  _56
REMARK   25  A    between atoms: _56  and  _57
REMARK   26  A    between atoms: _60  and  _62
REMARK   27  A    between atoms: _62  and  _63
REMARK   28  A    between atoms: _62  and  _65
REMARK   29  A    between atoms: _65  and  _66
REMARK   30  A    between atoms: _69  and  _71
REMARK   31  A    between atoms: _71  and  _72
REMARK   32  A    between atoms: _74  and  _76
REMARK   33  A    between atoms: _76  and  _77
REMARK   34  A    between atoms: _76  and  _79
REMARK   35  A    between atoms: _79  and  _80
REMARK   36  A    between atoms: _85  and  _86
REMARK   37  A    between atoms: _88  and  _90
REMARK   38  A    between atoms: _90  and  _91
REMARK   39  A    between atoms: _90  and  _93
REMARK   40  A    between atoms: _93  and  _94
REMARK   41  A    between atoms: _100  and  _102
REMARK   42  A    between atoms: _102  and  _103
REMARK   43  A    between atoms: _102  and  _105
REMARK   44  A    between atoms: _105  and  _106
REMARK   45  A    between atoms: _111  and  _113
REMARK   46  A    between atoms: _113  and  _114
REMARK   47  A    between atoms: _113  and  _116
REMARK   48  A    between atoms: _119  and  _121
REMARK   49  A    between atoms: _121  and  _122
REMARK   50  A    between atoms: _124  and  _126
REMARK   51  A    between atoms: _126  and  _127
REMARK   52  A    between atoms: _130  and  _132
REMARK   53  A    between atoms: _132  and  _133
REMARK   54  A    between atoms: _132  and  _135
REMARK   55  A    between atoms: _135  and  _136
REMARK   56  A    between atoms: _136  and  _137
REMARK   57  A    between atoms: _139  and  _141
REMARK   58  A    between atoms: _141  and  _142
REMARK   59  A    between atoms: _141  and  _144
REMARK   60  A    between atoms: _144  and  _145
REMARK   61  A    between atoms: _145  and  _146
REMARK   62  A    between atoms: _149  and  _151
REMARK   63  A    between atoms: _151  and  _152
REMARK   64  A    between atoms: _151  and  _154
REMARK   65  A    between atoms: _154  and  _155
REMARK   66  A    between atoms: _160  and  _162
REMARK   67  A    between atoms: _162  and  _163
REMARK   68  A    between atoms: _162  and  _165
REMARK   69  A    between atoms: _165  and  _166
REMARK   70  A    between atoms: _169  and  _171
REMARK   71  A    between atoms: _171  and  _172
REMARK   72  A    between atoms: _171  and  _174
REMARK   73  A    between atoms: _174  and  _175
REMARK   74  A    between atoms: _181  and  _183
REMARK   75  A    between atoms: _183  and  _184
REMARK   76  A    between atoms: _183  and  _186
REMARK   77  A    between atoms: _186  and  _187
REMARK   78  A    between atoms: _192  and  _194
REMARK   79  A    between atoms: _194  and  _195
REMARK   80  A    between atoms: _194  and  _197
REMARK   81  A    between atoms: _197  and  _198
REMARK   82  A    between atoms: _203  and  _205
REMARK   83  A    between atoms: _205  and  _206
REMARK   84  A    between atoms: _205  and  _208
REMARK   85  A    between atoms: _208  and  _209
REMARK   86  A    between atoms: _211  and  _213
REMARK   87  A    between atoms: _213  and  _214
REMARK   88  A    between atoms: _213  and  _216
REMARK   89  A    between atoms: _216  and  _217
REMARK   90  A    between atoms: _217  and  _218
REMARK   91  A    between atoms: _218  and  _219
REMARK   92  A    between atoms: _228  and  _230
REMARK   93  A    between atoms: _230  and  _231
REMARK   94  A    between atoms: _230  and  _233
REMARK   95  A    between atoms: _233  and  _234
REMARK   96  A    between atoms: _237  and  _239
REMARK   97  A    between atoms: _239  and  _240
REMARK   98  A    between atoms: _239  and  _242
REMARK   99  A    between atoms: _245  and  _247
REMARK  100  A    between atoms: _247  and  _248
REMARK  101  A    between atoms: _247  and  _250
REMARK  102  A    between atoms: _253  and  _255
REMARK  103  A    between atoms: _255  and  _256
REMARK  104  A    between atoms: _258  and  _260
REMARK  105  A    between atoms: _260  and  _261
REMARK  106  A    between atoms: _260  and  _263
REMARK  107  A    between atoms: _263  and  _264
REMARK  108  A    between atoms: _268  and  ZN_679
REMARK  109  A    between atoms: _269  and  _271
REMARK  110  A    between atoms: _271  and  _272
REMARK  111  A    between atoms: _271  and  _274
REMARK  112  A    between atoms: _274  and  _275
REMARK  113  A    between atoms: _275  and  _276
REMARK  114  A    between atoms: _279  and  _281
REMARK  115  A    between atoms: _281  and  _282
REMARK  116  A    between atoms: _281  and  _284
REMARK  117  A    between atoms: _284  and  _285
REMARK  118  A    between atoms: _290  and  _291
REMARK  119  A    between atoms: _293  and  _295
REMARK  120  A    between atoms: _295  and  _296
REMARK  121  A    between atoms: _295  and  _298
REMARK  122  A    between atoms: _298  and  _299
REMARK  123  A    between atoms: _303  and  ZN_679
REMARK  124  A    between atoms: _304  and  _306
REMARK  125  A    between atoms: _306  and  _307
REMARK  126  A    between atoms: _306  and  _309
REMARK  127  A    between atoms: _309  and  _310
REMARK  128  A    between atoms: _320  and  _322
REMARK  129  A    between atoms: _322  and  _323
REMARK  130  A    between atoms: _322  and  _325
REMARK  131  A    between atoms: _325  and  _326
REMARK  132  A    between atoms: _329  and  _331
REMARK  133  A    between atoms: _331  and  _332
REMARK  134  A    between atoms: _331  and  _334
REMARK  135  A    between atoms: _334  and  _335
REMARK  136  A    between atoms: _335  and  _336
REMARK  137  A    between atoms: _336  and  _337
REMARK  138  A    between atoms: _337  and  _338
REMARK  139  A    between atoms: _342  and  _344
REMARK  140  A    between atoms: _344  and  _345
REMARK  141  A    between atoms: _344  and  _347
REMARK  142  A    between atoms: _347  and  _348
REMARK  143  A    between atoms: _348  and  _349
REMARK  144  A    between atoms: _349  and  _350
REMARK  145  A    between atoms: _350  and  ZN_679
REMARK  146  A    between atoms: _352  and  _354
REMARK  147  A    between atoms: _354  and  _355
REMARK  148  A    between atoms: _354  and  _357
REMARK  149  A    between atoms: _357  and  _358
REMARK  150  A    between atoms: _361  and  _363
REMARK  151  A    between atoms: _363  and  _364
REMARK  152  A    between atoms: _363  and  _366
REMARK  153  A    between atoms: _369  and  _371
REMARK  154  A    between atoms: _371  and  _372
REMARK  155  A    between atoms: _371  and  _374
REMARK  156  A    between atoms: _374  and  _375
REMARK  157  A    between atoms: _375  and  _376
REMARK  158  A    between atoms: _379  and  _381
REMARK  159  A    between atoms: _381  and  _382
REMARK  160  A    between atoms: _381  and  _384
REMARK  161  A    between atoms: _384  and  _385
REMARK  162  A    between atoms: _385  and  _386
REMARK  163  A    between atoms: _389  and  _391
REMARK  164  A    between atoms: _391  and  _392
REMARK  165  A    between atoms: _391  and  _394
REMARK  166  A    between atoms: _394  and  _395
REMARK  167  A    between atoms: _398  and  _400
REMARK  168  A    between atoms: _400  and  _401
REMARK  169  A    between atoms: _400  and  _403
REMARK  170  A    between atoms: _403  and  _404
REMARK  171  A    between atoms: _409  and  _411
REMARK  172  A    between atoms: _411  and  _412
REMARK  173  A    between atoms: _411  and  _414
REMARK  174  A    between atoms: _414  and  _415
REMARK  175  A    between atoms: _417  and  _419
REMARK  176  A    between atoms: _419  and  _420
REMARK  177  A    between atoms: _419  and  _422
REMARK  178  A    between atoms: _422  and  _423
REMARK  179  A    between atoms: _423  and  _424
REMARK  180  A    between atoms: _426  and  _428
REMARK  181  A    between atoms: _428  and  _429
REMARK  182  A    between atoms: _432  and  _434
REMARK  183  A    between atoms: _434  and  _435
REMARK  184  A    between atoms: _434  and  _437
REMARK  185  A    between atoms: _437  and  _438
REMARK  186  A    between atoms: _443  and  _445
REMARK  187  A    between atoms: _445  and  _446
REMARK  188  A    between atoms: _445  and  _448
REMARK  189  A    between atoms: _448  and  _449
REMARK  190  A    between atoms: _455  and  _457
REMARK  191  A    between atoms: _457  and  _458
REMARK  192  A    between atoms: _457  and  _460
REMARK  193  A    between atoms: _460  and  _461
REMARK  194  A    between atoms: _466  and  _467
REMARK  195  A    between atoms: _469  and  _471
REMARK  196  A    between atoms: _471  and  _472
REMARK  197  A    between atoms: _471  and  _474
REMARK  198  A    between atoms: _474  and  _475
REMARK  199  A    between atoms: _478  and  _480
REMARK  200  A    between atoms: _480  and  _481
REMARK  201  A    between atoms: _480  and  _483
REMARK  202  A    between atoms: _483  and  _484
REMARK  203  A    between atoms: _487  and  _489
REMARK  204  A    between atoms: _489  and  _490
REMARK  205  A    between atoms: _489  and  _492
REMARK  206  A    between atoms: _492  and  _493
REMARK  207  A    between atoms: _496  and  _498
REMARK  208  A    between atoms: _498  and  _499
REMARK  209  A    between atoms: _498  and  _501
REMARK  210  A    between atoms: _501  and  _502
REMARK  211  A    between atoms: _507  and  _508
REMARK  212  A    between atoms: _510  and  _512
REMARK  213  A    between atoms: _512  and  _513
REMARK  214  A    between atoms: _512  and  _515
REMARK  215  A    between atoms: _515  and  _516
REMARK  216  A    between atoms: _519  and  _521
REMARK  217  A    between atoms: _521  and  _522
REMARK  218  A    between atoms: _521  and  _524
REMARK  219  A    between atoms: _524  and  _525
REMARK  220  A    between atoms: _525  and  _526
REMARK  221  A    between atoms: _526  and  _527
REMARK  222  A    between atoms: _536  and  _538
REMARK  223  A    between atoms: _538  and  _539
REMARK  224  A    between atoms: _538  and  _541
REMARK  225  A    between atoms: _541  and  _542
REMARK  226  A    between atoms: _548  and  _549
REMARK  227  A    between atoms: _554  and  _556
REMARK  228  A    between atoms: _556  and  _557
REMARK  229  A    between atoms: _556  and  _559
REMARK  230  A    between atoms: _559  and  _560
REMARK  231  A    between atoms: _560  and  _561
REMARK  232  A    between atoms: _563  and  _565
REMARK  233  A    between atoms: _565  and  _566
REMARK  234  A    between atoms: _565  and  _568
REMARK  235  A    between atoms: _571  and  _573
REMARK  236  A    between atoms: _573  and  _574
REMARK  237  A    between atoms: _577  and  _579
REMARK  238  A    between atoms: _579  and  _580
REMARK  239  A    between atoms: _579  and  _582
REMARK  240  A    between atoms: _582  and  _583
REMARK  241  A    between atoms: _586  and  _588
REMARK  242  A    between atoms: _588  and  _589
REMARK  243  A    between atoms: _588  and  _591
REMARK  244  A    between atoms: _591  and  _592
REMARK  245  A    between atoms: _592  and  _593
REMARK  246  A    between atoms: _598  and  _600
REMARK  247  A    between atoms: _600  and  _601
REMARK  248  A    between atoms: _600  and  _603
REMARK  249  A    between atoms: _603  and  _604
REMARK  250  A    between atoms: _607  and  _609
REMARK  251  A    between atoms: _609  and  _610
REMARK  252  A    between atoms: _609  and  _612
REMARK  253  A    between atoms: _614  and  _616
REMARK  254  A    between atoms: _616  and  _617
REMARK  255  A    between atoms: _616  and  _619
REMARK  256  A    between atoms: _619  and  _620
REMARK  257  A    between atoms: _620  and  _621
REMARK  258  A    between atoms: _624  and  _626
REMARK  259  A    between atoms: _626  and  _627
REMARK  260  A    between atoms: _626  and  _629
REMARK  261  A    between atoms: _629  and  _630
REMARK  262  A    between atoms: _630  and  _631
REMARK  263  A    between atoms: _631  and  _632
REMARK  264  A    between atoms: _632  and  _633
REMARK  265  A    between atoms: _637  and  _639
REMARK  266  A    between atoms: _639  and  _640
REMARK  267  A    between atoms: _639  and  _642
REMARK  268  A    between atoms: _642  and  _643
REMARK  269  A    between atoms: _648  and  _650
REMARK  270  A    between atoms: _650  and  _651
REMARK  271  A    between atoms: _650  and  _653
REMARK  272  A    between atoms: _653  and  _654
REMARK  273  A    between atoms: _659  and  _660
REMARK  274  A    between atoms: _662  and  _664
REMARK  275  A    between atoms: _664  and  _665
REMARK  276  A    between atoms: _664  and  _667
REMARK  277  A    between atoms: _667  and  _668
REMARK  278  A    between atoms: _668  and  _669
REMARK  279  A    between atoms: _669  and  _670
REMARK                            x       y       z     vdW  Elec       q    Type
REMARK                         _______ _______ _______ _____ _____    ______ ____
ROOT
ATOM      1  O   HOH     1       7.722   9.244  24.555  0.00  0.00    +0.000 OA
ENDROOT
TORSDOF 0
REMARK  Name = ../refined-set-2016/3t8v/3t8v_pocket.pdb
REMARK  279 active torsions:
REMARK  status: ('A' for Active; 'I' for Inactive)
REMARK    1  A    between atoms: _1  and  _3
REMARK    2  A    between atoms: _3  and  _4
REMARK    3  A    between atoms: _7  and  _9
REMARK    4  A    between atoms: _9  and  _10
REMARK    5  A    between atoms: _9  and  _12
REMARK    6  A    between atoms: _12  and  _13
REMARK    7  A    between atoms: _16  and  _18
REMARK    8  A    between atoms: _18  and  _19
REMARK    9  A    between atoms: _18  and  _21
REMARK   10  A    between atoms: _21  and  _22
REMARK   11  A    between atoms: _25  and  _27
REMARK   12  A    between atoms: _27  and  _28
REMARK   13  A    between atoms: _27  and  _30
REMARK   14  A    between atoms: _30  and  _31
REMARK   15  A    between atoms: _31  and  _32
REMARK   16  A    between atoms: _37  and  _39
REMARK   17  A    between atoms: _39  and  _40
REMARK   18  A    between atoms: _39  and  _42
REMARK   19  A    between atoms: _44  and  _46
REMARK   20  A    between atoms: _46  and  _47
REMARK   21  A    between atoms: _46  and  _49
REMARK   22  A    between atoms: _49  and  _50
REMARK   23  A    between atoms: _50  and  _51
REMARK   24  A    between atoms: _54  and  _56
REMARK   25  A    between atoms: _56  and  _57
REMARK   26  A    between atoms: _60  and  _62
REMARK   27  A    between atoms: _62  and  _63
REMARK   28  A    between atoms: _62  and  _65
REMARK   29  A    between atoms: _65  and  _66
REMARK   30  A    between atoms: _69  and  _71
REMARK   31  A    between atoms: _71  and  _72
REMARK   32  A    between atoms: _74  and  _76
REMARK   33  A    between atoms: _76  and  _77
REMARK   34  A    between atoms: _76  and  _79
REMARK   35  A    between atoms: _79  and  _80
REMARK   36  A    between atoms: _85  and  _86
REMARK   37  A    between atoms: _88  and  _90
REMARK   38  A    between atoms: _90  and  _91
REMARK   39  A    between atoms: _90  and  _93
REMARK   40  A    between atoms: _93  and  _94
REMARK   41  A    between atoms: _100  and  _102
REMARK   42  A    between atoms: _102  and  _103
REMARK   43  A    between atoms: _102  and  _105
REMARK   44  A    between atoms: _105  and  _106
REMARK   45  A    between atoms: _111  and  _113
REMARK   46  A    between atoms: _113  and  _114
REMARK   47  A    between atoms: _113  and  _116
REMARK   48  A    between atoms: _119  and  _121
REMARK   49  A    between atoms: _121  and  _122
REMARK   50  A    between atoms: _124  and  _126
REMARK   51  A    between atoms: _126  and  _127
REMARK   52  A    between atoms: _130  and  _132
REMARK   53  A    between atoms: _132  and  _133
REMARK   54  A    between atoms: _132  and  _135
REMARK   55  A    between atoms: _135  and  _136
REMARK   56  A    between atoms: _136  and  _137
REMARK   57  A    between atoms: _139  and  _141
REMARK   58  A    between atoms: _141  and  _142
REMARK   59  A    between atoms: _141  and  _144
REMARK   60  A    between atoms: _144  and  _145
REMARK   61  A    between atoms: _145  and  _146
REMARK   62  A    between atoms: _149  and  _151
REMARK   63  A    between atoms: _151  and  _152
REMARK   64  A    between atoms: _151  and  _154
REMARK   65  A    between atoms: _154  and  _155
REMARK   66  A    between atoms: _160  and  _162
REMARK   67  A    between atoms: _162  and  _163
REMARK   68  A    between atoms: _162  and  _165
REMARK   69  A    between atoms: _165  and  _166
REMARK   70  A    between atoms: _169  and  _171
REMARK   71  A    between atoms: _171  and  _172
REMARK   72  A    between atoms: _171  and  _174
REMARK   73  A    between atoms: _174  and  _175
REMARK   74  A    between atoms: _181  and  _183
REMARK   75  A    between atoms: _183  and  _184
REMARK   76  A    between atoms: _183  and  _186
REMARK   77  A    between atoms: _186  and  _187
REMARK   78  A    between atoms: _192  and  _194
REMARK   79  A    between atoms: _194  and  _195
REMARK   80  A    between atoms: _194  and  _197
REMARK   81  A    between atoms: _197  and  _198
REMARK   82  A    between atoms: _203  and  _205
REMARK   83  A    between atoms: _205  and  _206
REMARK   84  A    between atoms: _205  and  _208
REMARK   85  A    between atoms: _208  and  _209
REMARK   86  A    between atoms: _211  and  _213
REMARK   87  A    between atoms: _213  and  _214
REMARK   88  A    between atoms: _213  and  _216
REMARK   89  A    between atoms: _216  and  _217
REMARK   90  A    between atoms: _217  and  _218
REMARK   91  A    between atoms: _218  and  _219
REMARK   92  A    between atoms: _228  and  _230
REMARK   93  A    between atoms: _230  and  _231
REMARK   94  A    between atoms: _230  and  _233
REMARK   95  A    between atoms: _233  and  _234
REMARK   96  A    between atoms: _237  and  _239
REMARK   97  A    between atoms: _239  and  _240
REMARK   98  A    between atoms: _239  and  _242
REMARK   99  A    between atoms: _245  and  _247
REMARK  100  A    between atoms: _247  and  _248
REMARK  101  A    between atoms: _247  and  _250
REMARK  102  A    between atoms: _253  and  _255
REMARK  103  A    between atoms: _255  and  _256
REMARK  104  A    between atoms: _258  and  _260
REMARK  105  A    between atoms: _260  and  _261
REMARK  106  A    between atoms: _260  and  _263
REMARK  107  A    between atoms: _263  and  _264
REMARK  108  A    between atoms: _268  and  ZN_679
REMARK  109  A    between atoms: _269  and  _271
REMARK  110  A    between atoms: _271  and  _272
REMARK  111  A    between atoms: _271  and  _274
REMARK  112  A    between atoms: _274  and  _275
REMARK  113  A    between atoms: _275  and  _276
REMARK  114  A    between atoms: _279  and  _281
REMARK  115  A    between atoms: _281  and  _282
REMARK  116  A    between atoms: _281  and  _284
REMARK  117  A    between atoms: _284  and  _285
REMARK  118  A    between atoms: _290  and  _291
REMARK  119  A    between atoms: _293  and  _295
REMARK  120  A    between atoms: _295  and  _296
REMARK  121  A    between atoms: _295  and  _298
REMARK  122  A    between atoms: _298  and  _299
REMARK  123  A    between atoms: _303  and  ZN_679
REMARK  124  A    between atoms: _304  and  _306
REMARK  125  A    between atoms: _306  and  _307
REMARK  126  A    between atoms: _306  and  _309
REMARK  127  A    between atoms: _309  and  _310
REMARK  128  A    between atoms: _320  and  _322
REMARK  129  A    between atoms: _322  and  _323
REMARK  130  A    between atoms: _322  and  _325
REMARK  131  A    between atoms: _325  and  _326
REMARK  132  A    between atoms: _329  and  _331
REMARK  133  A    between atoms: _331  and  _332
REMARK  134  A    between atoms: _331  and  _334
REMARK  135  A    between atoms: _334  and  _335
REMARK  136  A    between atoms: _335  and  _336
REMARK  137  A    between atoms: _336  and  _337
REMARK  138  A    between atoms: _337  and  _338
REMARK  139  A    between atoms: _342  and  _344
REMARK  140  A    between atoms: _344  and  _345
REMARK  141  A    between atoms: _344  and  _347
REMARK  142  A    between atoms: _347  and  _348
REMARK  143  A    between atoms: _348  and  _349
REMARK  144  A    between atoms: _349  and  _350
REMARK  145  A    between atoms: _350  and  ZN_679
REMARK  146  A    between atoms: _352  and  _354
REMARK  147  A    between atoms: _354  and  _355
REMARK  148  A    between atoms: _354  and  _357
REMARK  149  A    between atoms: _357  and  _358
REMARK  150  A    between atoms: _361  and  _363
REMARK  151  A    between atoms: _363  and  _364
REMARK  152  A    between atoms: _363  and  _366
REMARK  153  A    between atoms: _369  and  _371
REMARK  154  A    between atoms: _371  and  _372
REMARK  155  A    between atoms: _371  and  _374
REMARK  156  A    between atoms: _374  and  _375
REMARK  157  A    between atoms: _375  and  _376
REMARK  158  A    between atoms: _379  and  _381
REMARK  159  A    between atoms: _381  and  _382
REMARK  160  A    between atoms: _381  and  _384
REMARK  161  A    between atoms: _384  and  _385
REMARK  162  A    between atoms: _385  and  _386
REMARK  163  A    between atoms: _389  and  _391
REMARK  164  A    between atoms: _391  and  _392
REMARK  165  A    between atoms: _391  and  _394
REMARK  166  A    between atoms: _394  and  _395
REMARK  167  A    between atoms: _398  and  _400
REMARK  168  A    between atoms: _400  and  _401
REMARK  169  A    between atoms: _400  and  _403
REMARK  170  A    between atoms: _403  and  _404
REMARK  171  A    between atoms: _409  and  _411
REMARK  172  A    between atoms: _411  and  _412
REMARK  173  A    between atoms: _411  and  _414
REMARK  174  A    between atoms: _414  and  _415
REMARK  175  A    between atoms: _417  and  _419
REMARK  176  A    between atoms: _419  and  _420
REMARK  177  A    between atoms: _419  and  _422
REMARK  178  A    between atoms: _422  and  _423
REMARK  179  A    between atoms: _423  and  _424
REMARK  180  A    between atoms: _426  and  _428
REMARK  181  A    between atoms: _428  and  _429
REMARK  182  A    between atoms: _432  and  _434
REMARK  183  A    between atoms: _434  and  _435
REMARK  184  A    between atoms: _434  and  _437
REMARK  185  A    between atoms: _437  and  _438
REMARK  186  A    between atoms: _443  and  _445
REMARK  187  A    between atoms: _445  and  _446
REMARK  188  A    between atoms: _445  and  _448
REMARK  189  A    between atoms: _448  and  _449
REMARK  190  A    between atoms: _455  and  _457
REMARK  191  A    between atoms: _457  and  _458
REMARK  192  A    between atoms: _457  and  _460
REMARK  193  A    between atoms: _460  and  _461
REMARK  194  A    between atoms: _466  and  _467
REMARK  195  A    between atoms: _469  and  _471
REMARK  196  A    between atoms: _471  and  _472
REMARK  197  A    between atoms: _471  and  _474
REMARK  198  A    between atoms: _474  and  _475
REMARK  199  A    between atoms: _478  and  _480
REMARK  200  A    between atoms: _480  and  _481
REMARK  201  A    between atoms: _480  and  _483
REMARK  202  A    between atoms: _483  and  _484
REMARK  203  A    between atoms: _487  and  _489
REMARK  204  A    between atoms: _489  and  _490
REMARK  205  A    between atoms: _489  and  _492
REMARK  206  A    between atoms: _492  and  _493
REMARK  207  A    between atoms: _496  and  _498
REMARK  208  A    between atoms: _498  and  _499
REMARK  209  A    between atoms: _498  and  _501
REMARK  210  A    between atoms: _501  and  _502
REMARK  211  A    between atoms: _507  and  _508
REMARK  212  A    between atoms: _510  and  _512
REMARK  213  A    between atoms: _512  and  _513
REMARK  214  A    between atoms: _512  and  _515
REMARK  215  A    between atoms: _515  and  _516
REMARK  216  A    between atoms: _519  and  _521
REMARK  217  A    between atoms: _521  and  _522
REMARK  218  A    between atoms: _521  and  _524
REMARK  219  A    between atoms: _524  and  _525
REMARK  220  A    between atoms: _525  and  _526
REMARK  221  A    between atoms: _526  and  _527
REMARK  222  A    between atoms: _536  and  _538
REMARK  223  A    between atoms: _538  and  _539
REMARK  224  A    between atoms: _538  and  _541
REMARK  225  A    between atoms: _541  and  _542
REMARK  226  A    between atoms: _548  and  _549
REMARK  227  A    between atoms: _554  and  _556
REMARK  228  A    between atoms: _556  and  _557
REMARK  229  A    between atoms: _556  and  _559
REMARK  230  A    between atoms: _559  and  _560
REMARK  231  A    between atoms: _560  and  _561
REMARK  232  A    between atoms: _563  and  _565
REMARK  233  A    between atoms: _565  and  _566
REMARK  234  A    between atoms: _565  and  _568
REMARK  235  A    between atoms: _571  and  _573
REMARK  236  A    between atoms: _573  and  _574
REMARK  237  A    between atoms: _577  and  _579
REMARK  238  A    between atoms: _579  and  _580
REMARK  239  A    between atoms: _579  and  _582
REMARK  240  A    between atoms: _582  and  _583
REMARK  241  A    between atoms: _586  and  _588
REMARK  242  A    between atoms: _588  and  _589
REMARK  243  A    between atoms: _588  and  _591
REMARK  244  A    between atoms: _591  and  _592
REMARK  245  A    between atoms: _592  and  _593
REMARK  246  A    between atoms: _598  and  _600
REMARK  247  A    between atoms: _600  and  _601
REMARK  248  A    between atoms: _600  and  _603
REMARK  249  A    between atoms: _603  and  _604
REMARK  250  A    between atoms: _607  and  _609
REMARK  251  A    between atoms: _609  and  _610
REMARK  252  A    between atoms: _609  and  _612
REMARK  253  A    between atoms: _614  and  _616
REMARK  254  A    between atoms: _616  and  _617
REMARK  255  A    between atoms: _616  and  _619
REMARK  256  A    between atoms: _619  and  _620
REMARK  257  A    between atoms: _620  and  _621
REMARK  258  A    between atoms: _624  and  _626
REMARK  259  A    between atoms: _626  and  _627
REMARK  260  A    between atoms: _626  and  _629
REMARK  261  A    between atoms: _629  and  _630
REMARK  262  A    between atoms: _630  and  _631
REMARK  263  A    between atoms: _631  and  _632
REMARK  264  A    between atoms: _632  and  _633
REMARK  265  A    between atoms: _637  and  _639
REMARK  266  A    between atoms: _639  and  _640
REMARK  267  A    between atoms: _639  and  _642
REMARK  268  A    between atoms: _642  and  _643
REMARK  269  A    between atoms: _648  and  _650
REMARK  270  A    between atoms: _650  and  _651
REMARK  271  A    between atoms: _650  and  _653
REMARK  272  A    between atoms: _653  and  _654
REMARK  273  A    between atoms: _659  and  _660
REMARK  274  A    between atoms: _662  and  _664
REMARK  275  A    between atoms: _664  and  _665
REMARK  276  A    between atoms: _664  and  _667
REMARK  277  A    between atoms: _667  and  _668
REMARK  278  A    between atoms: _668  and  _669
REMARK  279  A    between atoms: _669  and  _670
REMARK                            x       y       z     vdW  Elec       q    Type
REMARK                         _______ _______ _______ _____ _____    ______ ____
ROOT
ATOM      1  O   HOH     1      25.751   7.984  11.356  0.00  0.00    +0.000 OA
ENDROOT
TORSDOF 0
