REMARK  Name = ../refined-set-2016/4pmm/4pmm_pocket.pdb
REMARK  248 active torsions:
REMARK  status: ('A' for Active; 'I' for Inactive)
REMARK    1  A    between atoms: _1  and  _3
REMARK    2  A    between atoms: _3  and  _4
REMARK    3  A    between atoms: _3  and  _6
REMARK    4  A    between atoms: _6  and  _7
REMARK    5  A    between atoms: _17  and  _19
REMARK    6  A    between atoms: _19  and  _20
REMARK    7  A    between atoms: _19  and  _22
REMARK    8  A    between atoms: _22  and  _23
REMARK    9  A    between atoms: _26  and  _28
REMARK   10  A    between atoms: _28  and  _29
REMARK   11  A    between atoms: _31  and  _33
REMARK   12  A    between atoms: _33  and  _34
REMARK   13  A    between atoms: _36  and  _38
REMARK   14  A    between atoms: _38  and  _39
REMARK   15  A    between atoms: _38  and  _41
REMARK   16  A    between atoms: _41  and  _42
REMARK   17  A    between atoms: _42  and  _43
REMARK   18  A    between atoms: _43  and  _44
REMARK   19  A    between atoms: _44  and  _45
REMARK   20  A    between atoms: _49  and  _51
REMARK   21  A    between atoms: _51  and  _52
REMARK   22  A    between atoms: _51  and  _54
REMARK   23  A    between atoms: _57  and  _59
REMARK   24  A    between atoms: _59  and  _60
REMARK   25  A    between atoms: _59  and  _62
REMARK   26  A    between atoms: _62  and  _63
REMARK   27  A    between atoms: _69  and  _71
REMARK   28  A    between atoms: _71  and  _72
REMARK   29  A    between atoms: _71  and  _74
REMARK   30  A    between atoms: _74  and  _75
REMARK   31  A    between atoms: _78  and  _80
REMARK   32  A    between atoms: _80  and  _81
REMARK   33  A    between atoms: _84  and  _86
REMARK   34  A    between atoms: _86  and  _87
REMARK   35  A    between atoms: _86  and  _89
REMARK   36  A    between atoms: _92  and  _94
REMARK   37  A    between atoms: _94  and  _95
REMARK   38  A    between atoms: _98  and  _100
REMARK   39  A    between atoms: _100  and  _101
REMARK   40  A    between atoms: _100  and  _103
REMARK   41  A    between atoms: _106  and  _108
REMARK   42  A    between atoms: _108  and  _109
REMARK   43  A    between atoms: _108  and  _111
REMARK   44  A    between atoms: _111  and  _112
REMARK   45  A    between atoms: _112  and  _113
REMARK   46  A    between atoms: _113  and  _114
REMARK   47  A    between atoms: _114  and  _115
REMARK   48  A    between atoms: _119  and  _121
REMARK   49  A    between atoms: _121  and  _122
REMARK   50  A    between atoms: _125  and  _127
REMARK   51  A    between atoms: _127  and  _128
REMARK   52  A    between atoms: _127  and  _130
REMARK   53  A    between atoms: _130  and  _131
REMARK   54  A    between atoms: _134  and  _136
REMARK   55  A    between atoms: _136  and  _137
REMARK   56  A    between atoms: _136  and  _139
REMARK   57  A    between atoms: _139  and  _140
REMARK   58  A    between atoms: _146  and  _148
REMARK   59  A    between atoms: _148  and  _149
REMARK   60  A    between atoms: _148  and  _151
REMARK   61  A    between atoms: _151  and  _152
REMARK   62  A    between atoms: _152  and  _153
REMARK   63  A    between atoms: _153  and  _154
REMARK   64  A    between atoms: _163  and  _165
REMARK   65  A    between atoms: _165  and  _166
REMARK   66  A    between atoms: _165  and  _168
REMARK   67  A    between atoms: _168  and  _169
REMARK   68  A    between atoms: _169  and  _170
REMARK   69  A    between atoms: _173  and  _175
REMARK   70  A    between atoms: _175  and  _176
REMARK   71  A    between atoms: _179  and  _181
REMARK   72  A    between atoms: _181  and  _182
REMARK   73  A    between atoms: _181  and  _184
REMARK   74  A    between atoms: _184  and  _185
REMARK   75  A    between atoms: _188  and  _190
REMARK   76  A    between atoms: _190  and  _191
REMARK   77  A    between atoms: _190  and  _193
REMARK   78  A    between atoms: _193  and  _194
REMARK   79  A    between atoms: _197  and  _199
REMARK   80  A    between atoms: _199  and  _200
REMARK   81  A    between atoms: _199  and  _202
REMARK   82  A    between atoms: _202  and  _203
REMARK   83  A    between atoms: _206  and  _208
REMARK   84  A    between atoms: _208  and  _209
REMARK   85  A    between atoms: _208  and  _211
REMARK   86  A    between atoms: _211  and  _212
REMARK   87  A    between atoms: _217  and  _219
REMARK   88  A    between atoms: _219  and  _220
REMARK   89  A    between atoms: _219  and  _222
REMARK   90  A    between atoms: _222  and  _223
REMARK   91  A    between atoms: _226  and  _228
REMARK   92  A    between atoms: _228  and  _229
REMARK   93  A    between atoms: _228  and  _231
REMARK   94  A    between atoms: _234  and  _236
REMARK   95  A    between atoms: _236  and  _237
REMARK   96  A    between atoms: _236  and  _239
REMARK   97  A    between atoms: _239  and  _240
REMARK   98  A    between atoms: _240  and  _241
REMARK   99  A    between atoms: _241  and  _242
REMARK  100  A    between atoms: _251  and  _253
REMARK  101  A    between atoms: _253  and  _254
REMARK  102  A    between atoms: _253  and  _256
REMARK  103  A    between atoms: _256  and  _257
REMARK  104  A    between atoms: _263  and  _265
REMARK  105  A    between atoms: _265  and  _266
REMARK  106  A    between atoms: _265  and  _268
REMARK  107  A    between atoms: _268  and  _269
REMARK  108  A    between atoms: _269  and  _270
REMARK  109  A    between atoms: _272  and  _274
REMARK  110  A    between atoms: _274  and  _275
REMARK  111  A    between atoms: _274  and  _277
REMARK  112  A    between atoms: _280  and  _282
REMARK  113  A    between atoms: _282  and  _283
REMARK  114  A    between atoms: _282  and  _285
REMARK  115  A    between atoms: _285  and  _286
REMARK  116  A    between atoms: _292  and  _294
REMARK  117  A    between atoms: _294  and  _295
REMARK  118  A    between atoms: _294  and  _297
REMARK  119  A    between atoms: _297  and  _298
REMARK  120  A    between atoms: _298  and  _299
REMARK  121  A    between atoms: _302  and  _304
REMARK  122  A    between atoms: _304  and  _305
REMARK  123  A    between atoms: _304  and  _307
REMARK  124  A    between atoms: _307  and  _308
REMARK  125  A    between atoms: _313  and  _314
REMARK  126  A    between atoms: _316  and  _318
REMARK  127  A    between atoms: _318  and  _319
REMARK  128  A    between atoms: _318  and  _321
REMARK  129  A    between atoms: _321  and  _322
REMARK  130  A    between atoms: _322  and  _323
REMARK  131  A    between atoms: _325  and  _327
REMARK  132  A    between atoms: _327  and  _328
REMARK  133  A    between atoms: _327  and  _330
REMARK  134  A    between atoms: _330  and  _331
REMARK  135  A    between atoms: _331  and  _332
REMARK  136  A    between atoms: _332  and  _333
REMARK  137  A    between atoms: _342  and  _344
REMARK  138  A    between atoms: _344  and  _345
REMARK  139  A    between atoms: _344  and  _347
REMARK  140  A    between atoms: _347  and  _348
REMARK  141  A    between atoms: _353  and  _355
REMARK  142  A    between atoms: _355  and  _356
REMARK  143  A    between atoms: _358  and  _360
REMARK  144  A    between atoms: _360  and  _361
REMARK  145  A    between atoms: _360  and  _363
REMARK  146  A    between atoms: _363  and  _364
REMARK  147  A    between atoms: _367  and  _369
REMARK  148  A    between atoms: _369  and  _370
REMARK  149  A    between atoms: _369  and  _372
REMARK  150  A    between atoms: _372  and  _373
REMARK  151  A    between atoms: _376  and  _378
REMARK  152  A    between atoms: _378  and  _379
REMARK  153  A    between atoms: _381  and  _383
REMARK  154  A    between atoms: _383  and  _384
REMARK  155  A    between atoms: _383  and  _386
REMARK  156  A    between atoms: _386  and  _387
REMARK  157  A    between atoms: _387  and  _388
REMARK  158  A    between atoms: _390  and  _392
REMARK  159  A    between atoms: _392  and  _393
REMARK  160  A    between atoms: _392  and  _395
REMARK  161  A    between atoms: _395  and  _396
REMARK  162  A    between atoms: _401  and  _402
REMARK  163  A    between atoms: _404  and  _406
REMARK  164  A    between atoms: _406  and  _407
REMARK  165  A    between atoms: _406  and  _409
REMARK  166  A    between atoms: _409  and  _410
REMARK  167  A    between atoms: _413  and  _415
REMARK  168  A    between atoms: _415  and  _416
REMARK  169  A    between atoms: _415  and  _418
REMARK  170  A    between atoms: _418  and  _419
REMARK  171  A    between atoms: _425  and  _427
REMARK  172  A    between atoms: _427  and  _428
REMARK  173  A    between atoms: _427  and  _430
REMARK  174  A    between atoms: _433  and  _435
REMARK  175  A    between atoms: _435  and  _436
REMARK  176  A    between atoms: _435  and  _438
REMARK  177  A    between atoms: _438  and  _439
REMARK  178  A    between atoms: _444  and  _446
REMARK  179  A    between atoms: _446  and  _447
REMARK  180  A    between atoms: _446  and  _449
REMARK  181  A    between atoms: _449  and  _450
REMARK  182  A    between atoms: _453  and  _455
REMARK  183  A    between atoms: _455  and  _456
REMARK  184  A    between atoms: _455  and  _458
REMARK  185  A    between atoms: _458  and  _459
REMARK  186  A    between atoms: _462  and  _464
REMARK  187  A    between atoms: _464  and  _465
REMARK  188  A    between atoms: _464  and  _467
REMARK  189  A    between atoms: _467  and  _468
REMARK  190  A    between atoms: _468  and  _469
REMARK  191  A    between atoms: _469  and  _470
REMARK  192  A    between atoms: _479  and  _481
REMARK  193  A    between atoms: _481  and  _482
REMARK  194  A    between atoms: _481  and  _484
REMARK  195  A    between atoms: _484  and  _485
REMARK  196  A    between atoms: _490  and  _492
REMARK  197  A    between atoms: _492  and  _493
REMARK  198  A    between atoms: _492  and  _495
REMARK  199  A    between atoms: _497  and  _499
REMARK  200  A    between atoms: _499  and  _500
REMARK  201  A    between atoms: _499  and  _502
REMARK  202  A    between atoms: _502  and  _503
REMARK  203  A    between atoms: _506  and  _508
REMARK  204  A    between atoms: _508  and  _509
REMARK  205  A    between atoms: _508  and  _511
REMARK  206  A    between atoms: _514  and  _516
REMARK  207  A    between atoms: _516  and  _517
REMARK  208  A    between atoms: _519  and  _521
REMARK  209  A    between atoms: _521  and  _522
REMARK  210  A    between atoms: _521  and  _524
REMARK  211  A    between atoms: _524  and  _525
REMARK  212  A    between atoms: _525  and  _526
REMARK  213  A    between atoms: _526  and  _527
REMARK  214  A    between atoms: _527  and  _528
REMARK  215  A    between atoms: _532  and  _534
REMARK  216  A    between atoms: _534  and  _535
REMARK  217  A    between atoms: _534  and  _537
REMARK  218  A    between atoms: _537  and  _538
REMARK  219  A    between atoms: _541  and  _543
REMARK  220  A    between atoms: _543  and  _544
REMARK  221  A    between atoms: _546  and  _548
REMARK  222  A    between atoms: _548  and  _549
REMARK  223  A    between atoms: _548  and  _551
REMARK  224  A    between atoms: _551  and  _552
REMARK  225  A    between atoms: _555  and  _557
REMARK  226  A    between atoms: _557  and  _558
REMARK  227  A    between atoms: _557  and  _560
REMARK  228  A    between atoms: _560  and  _561
REMARK  229  A    between atoms: _567  and  _569
REMARK  230  A    between atoms: _569  and  _570
REMARK  231  A    between atoms: _572  and  _574
REMARK  232  A    between atoms: _574  and  _575
REMARK  233  A    between atoms: _574  and  _577
REMARK  234  A    between atoms: _577  and  _578
REMARK  235  A    between atoms: _578  and  _579
REMARK  236  A    between atoms: _581  and  _583
REMARK  237  A    between atoms: _583  and  _584
REMARK  238  A    between atoms: _583  and  _586
REMARK  239  A    between atoms: _586  and  _587
REMARK  240  A    between atoms: _589  and  _591
REMARK  241  A    between atoms: _591  and  _592
REMARK  242  A    between atoms: _591  and  _594
REMARK  243  A    between atoms: _594  and  _595
REMARK  244  A    between atoms: _598  and  _600
REMARK  245  A    between atoms: _600  and  _601
REMARK  246  A    between atoms: _600  and  _603
REMARK  247  A    between atoms: _603  and  _604
REMARK  248  A    between atoms: _609  and  _610
REMARK                            x       y       z     vdW  Elec       q    Type
REMARK                         _______ _______ _______ _____ _____    ______ ____
ROOT
ATOM      1  CG  TRP A   1      20.386 -41.361  -3.184  0.00  0.00    -0.002 A 
ATOM      2  CD2 TRP A   1      20.270 -41.612  -1.776  0.00  0.00    +0.013 A 
ATOM      3  CE3 TRP A   1      19.908 -42.738  -1.014  0.00  0.00    +0.001 A 
ATOM      4  CZ3 TRP A   1      19.954 -42.652   0.371  0.00  0.00    +0.000 A 
ATOM      5  CH2 TRP A   1      20.365 -41.471   1.009  0.00  0.00    +0.001 A 
ATOM      6  CZ2 TRP A   1      20.722 -40.348   0.291  0.00  0.00    +0.017 A 
ATOM      7  CE2 TRP A   1      20.684 -40.437  -1.104  0.00  0.00    +0.056 A 
ATOM      8  NE1 TRP A   1      20.981 -39.501  -2.064  0.00  0.00    -0.352 N 
ATOM      9  HE1 TRP A   1      21.297 -38.527  -1.881  0.00  0.00    +0.166 HD
ATOM     10  CD1 TRP A   1      20.793 -40.061  -3.308  0.00  0.00    +0.068 A 
ENDROOT
BRANCH   1  11
ATOM     11  CB  TRP A   1      19.957 -42.285  -4.291  0.00  0.00    +0.053 C 
BRANCH  11  12
ATOM     12  CA  TRP A   1      21.083 -42.946  -5.111  0.00  0.00    +0.137 C 
BRANCH  12  13
ATOM     13  N   TRP A   1      21.985 -43.782  -4.306  0.00  0.00    -0.239 NA
ATOM     14  H   TRP A   1      22.982 -43.491  -4.251  0.00  0.00    +0.142 HD
ENDBRANCH  12  13
BRANCH  12  15
ATOM     15  C   TRP A   1      21.829 -41.892  -5.905  0.00  0.00    +0.224 C 
ATOM     16  O   TRP A   1      22.971 -41.557  -5.579  0.00  0.00    -0.287 OA
ENDBRANCH  12  15
ENDBRANCH  11  12
ENDBRANCH   1  11
TORSDOF 4
REMARK  Name = ../refined-set-2016/4pmm/4pmm_pocket.pdb
REMARK  248 active torsions:
REMARK  status: ('A' for Active; 'I' for Inactive)
REMARK    1  A    between atoms: _1  and  _3
REMARK    2  A    between atoms: _3  and  _4
REMARK    3  A    between atoms: _3  and  _6
REMARK    4  A    between atoms: _6  and  _7
REMARK    5  A    between atoms: _17  and  _19
REMARK    6  A    between atoms: _19  and  _20
REMARK    7  A    between atoms: _19  and  _22
REMARK    8  A    between atoms: _22  and  _23
REMARK    9  A    between atoms: _26  and  _28
REMARK   10  A    between atoms: _28  and  _29
REMARK   11  A    between atoms: _31  and  _33
REMARK   12  A    between atoms: _33  and  _34
REMARK   13  A    between atoms: _36  and  _38
REMARK   14  A    between atoms: _38  and  _39
REMARK   15  A    between atoms: _38  and  _41
REMARK   16  A    between atoms: _41  and  _42
REMARK   17  A    between atoms: _42  and  _43
REMARK   18  A    between atoms: _43  and  _44
REMARK   19  A    between atoms: _44  and  _45
REMARK   20  A    between atoms: _49  and  _51
REMARK   21  A    between atoms: _51  and  _52
REMARK   22  A    between atoms: _51  and  _54
REMARK   23  A    between atoms: _57  and  _59
REMARK   24  A    between atoms: _59  and  _60
REMARK   25  A    between atoms: _59  and  _62
REMARK   26  A    between atoms: _62  and  _63
REMARK   27  A    between atoms: _69  and  _71
REMARK   28  A    between atoms: _71  and  _72
REMARK   29  A    between atoms: _71  and  _74
REMARK   30  A    between atoms: _74  and  _75
REMARK   31  A    between atoms: _78  and  _80
REMARK   32  A    between atoms: _80  and  _81
REMARK   33  A    between atoms: _84  and  _86
REMARK   34  A    between atoms: _86  and  _87
REMARK   35  A    between atoms: _86  and  _89
REMARK   36  A    between atoms: _92  and  _94
REMARK   37  A    between atoms: _94  and  _95
REMARK   38  A    between atoms: _98  and  _100
REMARK   39  A    between atoms: _100  and  _101
REMARK   40  A    between atoms: _100  and  _103
REMARK   41  A    between atoms: _106  and  _108
REMARK   42  A    between atoms: _108  and  _109
REMARK   43  A    between atoms: _108  and  _111
REMARK   44  A    between atoms: _111  and  _112
REMARK   45  A    between atoms: _112  and  _113
REMARK   46  A    between atoms: _113  and  _114
REMARK   47  A    between atoms: _114  and  _115
REMARK   48  A    between atoms: _119  and  _121
REMARK   49  A    between atoms: _121  and  _122
REMARK   50  A    between atoms: _125  and  _127
REMARK   51  A    between atoms: _127  and  _128
REMARK   52  A    between atoms: _127  and  _130
REMARK   53  A    between atoms: _130  and  _131
REMARK   54  A    between atoms: _134  and  _136
REMARK   55  A    between atoms: _136  and  _137
REMARK   56  A    between atoms: _136  and  _139
REMARK   57  A    between atoms: _139  and  _140
REMARK   58  A    between atoms: _146  and  _148
REMARK   59  A    between atoms: _148  and  _149
REMARK   60  A    between atoms: _148  and  _151
REMARK   61  A    between atoms: _151  and  _152
REMARK   62  A    between atoms: _152  and  _153
REMARK   63  A    between atoms: _153  and  _154
REMARK   64  A    between atoms: _163  and  _165
REMARK   65  A    between atoms: _165  and  _166
REMARK   66  A    between atoms: _165  and  _168
REMARK   67  A    between atoms: _168  and  _169
REMARK   68  A    between atoms: _169  and  _170
REMARK   69  A    between atoms: _173  and  _175
REMARK   70  A    between atoms: _175  and  _176
REMARK   71  A    between atoms: _179  and  _181
REMARK   72  A    between atoms: _181  and  _182
REMARK   73  A    between atoms: _181  and  _184
REMARK   74  A    between atoms: _184  and  _185
REMARK   75  A    between atoms: _188  and  _190
REMARK   76  A    between atoms: _190  and  _191
REMARK   77  A    between atoms: _190  and  _193
REMARK   78  A    between atoms: _193  and  _194
REMARK   79  A    between atoms: _197  and  _199
REMARK   80  A    between atoms: _199  and  _200
REMARK   81  A    between atoms: _199  and  _202
REMARK   82  A    between atoms: _202  and  _203
REMARK   83  A    between atoms: _206  and  _208
REMARK   84  A    between atoms: _208  and  _209
REMARK   85  A    between atoms: _208  and  _211
REMARK   86  A    between atoms: _211  and  _212
REMARK   87  A    between atoms: _217  and  _219
REMARK   88  A    between atoms: _219  and  _220
REMARK   89  A    between atoms: _219  and  _222
REMARK   90  A    between atoms: _222  and  _223
REMARK   91  A    between atoms: _226  and  _228
REMARK   92  A    between atoms: _228  and  _229
REMARK   93  A    between atoms: _228  and  _231
REMARK   94  A    between atoms: _234  and  _236
REMARK   95  A    between atoms: _236  and  _237
REMARK   96  A    between atoms: _236  and  _239
REMARK   97  A    between atoms: _239  and  _240
REMARK   98  A    between atoms: _240  and  _241
REMARK   99  A    between atoms: _241  and  _242
REMARK  100  A    between atoms: _251  and  _253
REMARK  101  A    between atoms: _253  and  _254
REMARK  102  A    between atoms: _253  and  _256
REMARK  103  A    between atoms: _256  and  _257
REMARK  104  A    between atoms: _263  and  _265
REMARK  105  A    between atoms: _265  and  _266
REMARK  106  A    between atoms: _265  and  _268
REMARK  107  A    between atoms: _268  and  _269
REMARK  108  A    between atoms: _269  and  _270
REMARK  109  A    between atoms: _272  and  _274
REMARK  110  A    between atoms: _274  and  _275
REMARK  111  A    between atoms: _274  and  _277
REMARK  112  A    between atoms: _280  and  _282
REMARK  113  A    between atoms: _282  and  _283
REMARK  114  A    between atoms: _282  and  _285
REMARK  115  A    between atoms: _285  and  _286
REMARK  116  A    between atoms: _292  and  _294
REMARK  117  A    between atoms: _294  and  _295
REMARK  118  A    between atoms: _294  and  _297
REMARK  119  A    between atoms: _297  and  _298
REMARK  120  A    between atoms: _298  and  _299
REMARK  121  A    between atoms: _302  and  _304
REMARK  122  A    between atoms: _304  and  _305
REMARK  123  A    between atoms: _304  and  _307
REMARK  124  A    between atoms: _307  and  _308
REMARK  125  A    between atoms: _313  and  _314
REMARK  126  A    between atoms: _316  and  _318
REMARK  127  A    between atoms: _318  and  _319
REMARK  128  A    between atoms: _318  and  _321
REMARK  129  A    between atoms: _321  and  _322
REMARK  130  A    between atoms: _322  and  _323
REMARK  131  A    between atoms: _325  and  _327
REMARK  132  A    between atoms: _327  and  _328
REMARK  133  A    between atoms: _327  and  _330
REMARK  134  A    between atoms: _330  and  _331
REMARK  135  A    between atoms: _331  and  _332
REMARK  136  A    between atoms: _332  and  _333
REMARK  137  A    between atoms: _342  and  _344
REMARK  138  A    between atoms: _344  and  _345
REMARK  139  A    between atoms: _344  and  _347
REMARK  140  A    between atoms: _347  and  _348
REMARK  141  A    between atoms: _353  and  _355
REMARK  142  A    between atoms: _355  and  _356
REMARK  143  A    between atoms: _358  and  _360
REMARK  144  A    between atoms: _360  and  _361
REMARK  145  A    between atoms: _360  and  _363
REMARK  146  A    between atoms: _363  and  _364
REMARK  147  A    between atoms: _367  and  _369
REMARK  148  A    between atoms: _369  and  _370
REMARK  149  A    between atoms: _369  and  _372
REMARK  150  A    between atoms: _372  and  _373
REMARK  151  A    between atoms: _376  and  _378
REMARK  152  A    between atoms: _378  and  _379
REMARK  153  A    between atoms: _381  and  _383
REMARK  154  A    between atoms: _383  and  _384
REMARK  155  A    between atoms: _383  and  _386
REMARK  156  A    between atoms: _386  and  _387
REMARK  157  A    between atoms: _387  and  _388
REMARK  158  A    between atoms: _390  and  _392
REMARK  159  A    between atoms: _392  and  _393
REMARK  160  A    between atoms: _392  and  _395
REMARK  161  A    between atoms: _395  and  _396
REMARK  162  A    between atoms: _401  and  _402
REMARK  163  A    between atoms: _404  and  _406
REMARK  164  A    between atoms: _406  and  _407
REMARK  165  A    between atoms: _406  and  _409
REMARK  166  A    between atoms: _409  and  _410
REMARK  167  A    between atoms: _413  and  _415
REMARK  168  A    between atoms: _415  and  _416
REMARK  169  A    between atoms: _415  and  _418
REMARK  170  A    between atoms: _418  and  _419
REMARK  171  A    between atoms: _425  and  _427
REMARK  172  A    between atoms: _427  and  _428
REMARK  173  A    between atoms: _427  and  _430
REMARK  174  A    between atoms: _433  and  _435
REMARK  175  A    between atoms: _435  and  _436
REMARK  176  A    between atoms: _435  and  _438
REMARK  177  A    between atoms: _438  and  _439
REMARK  178  A    between atoms: _444  and  _446
REMARK  179  A    between atoms: _446  and  _447
REMARK  180  A    between atoms: _446  and  _449
REMARK  181  A    between atoms: _449  and  _450
REMARK  182  A    between atoms: _453  and  _455
REMARK  183  A    between atoms: _455  and  _456
REMARK  184  A    between atoms: _455  and  _458
REMARK  185  A    between atoms: _458  and  _459
REMARK  186  A    between atoms: _462  and  _464
REMARK  187  A    between atoms: _464  and  _465
REMARK  188  A    between atoms: _464  and  _467
REMARK  189  A    between atoms: _467  and  _468
REMARK  190  A    between atoms: _468  and  _469
REMARK  191  A    between atoms: _469  and  _470
REMARK  192  A    between atoms: _479  and  _481
REMARK  193  A    between atoms: _481  and  _482
REMARK  194  A    between atoms: _481  and  _484
REMARK  195  A    between atoms: _484  and  _485
REMARK  196  A    between atoms: _490  and  _492
REMARK  197  A    between atoms: _492  and  _493
REMARK  198  A    between atoms: _492  and  _495
REMARK  199  A    between atoms: _497  and  _499
REMARK  200  A    between atoms: _499  and  _500
REMARK  201  A    between atoms: _499  and  _502
REMARK  202  A    between atoms: _502  and  _503
REMARK  203  A    between atoms: _506  and  _508
REMARK  204  A    between atoms: _508  and  _509
REMARK  205  A    between atoms: _508  and  _511
REMARK  206  A    between atoms: _514  and  _516
REMARK  207  A    between atoms: _516  and  _517
REMARK  208  A    between atoms: _519  and  _521
REMARK  209  A    between atoms: _521  and  _522
REMARK  210  A    between atoms: _521  and  _524
REMARK  211  A    between atoms: _524  and  _525
REMARK  212  A    between atoms: _525  and  _526
REMARK  213  A    between atoms: _526  and  _527
REMARK  214  A    between atoms: _527  and  _528
REMARK  215  A    between atoms: _532  and  _534
REMARK  216  A    between atoms: _534  and  _535
REMARK  217  A    between atoms: _534  and  _537
REMARK  218  A    between atoms: _537  and  _538
REMARK  219  A    between atoms: _541  and  _543
REMARK  220  A    between atoms: _543  and  _544
REMARK  221  A    between atoms: _546  and  _548
REMARK  222  A    between atoms: _548  and  _549
REMARK  223  A    between atoms: _548  and  _551
REMARK  224  A    between atoms: _551  and  _552
REMARK  225  A    between atoms: _555  and  _557
REMARK  226  A    between atoms: _557  and  _558
REMARK  227  A    between atoms: _557  and  _560
REMARK  228  A    between atoms: _560  and  _561
REMARK  229  A    between atoms: _567  and  _569
REMARK  230  A    between atoms: _569  and  _570
REMARK  231  A    between atoms: _572  and  _574
REMARK  232  A    between atoms: _574  and  _575
REMARK  233  A    between atoms: _574  and  _577
REMARK  234  A    between atoms: _577  and  _578
REMARK  235  A    between atoms: _578  and  _579
REMARK  236  A    between atoms: _581  and  _583
REMARK  237  A    between atoms: _583  and  _584
REMARK  238  A    between atoms: _583  and  _586
REMARK  239  A    between atoms: _586  and  _587
REMARK  240  A    between atoms: _589  and  _591
REMARK  241  A    between atoms: _591  and  _592
REMARK  242  A    between atoms: _591  and  _594
REMARK  243  A    between atoms: _594  and  _595
REMARK  244  A    between atoms: _598  and  _600
REMARK  245  A    between atoms: _600  and  _601
REMARK  246  A    between atoms: _600  and  _603
REMARK  247  A    between atoms: _603  and  _604
REMARK  248  A    between atoms: _609  and  _610
REMARK                            x       y       z     vdW  Elec       q    Type
REMARK                         _______ _______ _______ _____ _____    ______ ____
ROOT
ATOM      1  CA  LEU A   1      22.621 -36.891  -6.342  0.00  0.00    +0.145 C 
ENDROOT
BRANCH   1   2
ATOM      2  C   LEU A   1      22.293 -35.881  -7.445  0.00  0.00    +0.238 C 
ATOM      3  O   LEU A   1      21.373 -35.082  -7.284  0.00  0.00    -0.274 OA
ATOM      4  N   GLY A   2      23.032 -35.941  -8.552  0.00  0.00    -0.297 N 
ATOM      5  H   GLY A   2      23.778 -36.663  -8.612  0.00  0.00    +0.150 HD
BRANCH   4   6
ATOM      6  CA  GLY A   2      22.843 -35.042  -9.681  0.00  0.00    +0.163 C 
BRANCH   6   7
ATOM      7  C   GLY A   2      23.337 -35.583 -11.000  0.00  0.00    +0.229 C 
ATOM      8  O   GLY A   2      24.105 -36.547 -11.046  0.00  0.00    -0.286 OA
ENDBRANCH   6   7
ENDBRANCH   4   6
ENDBRANCH   1   2
BRANCH   1   9
ATOM      9  N   LEU A   1      22.613 -38.233  -6.925  0.00  0.00    -0.238 NA
ATOM     10  H   LEU A   1      23.523 -38.651  -7.204  0.00  0.00    +0.142 HD
ENDBRANCH   1   9
BRANCH   1  11
ATOM     11  CB  LEU A   1      23.981 -36.556  -5.679  0.00  0.00    +0.026 C 
BRANCH  11  12
ATOM     12  CG  LEU A   1      24.360 -37.327  -4.397  0.00  0.00    +0.002 C 
ATOM     13  CD2 LEU A   1      23.528 -36.888  -3.207  0.00  0.00    +0.000 C 
ATOM     14  CD1 LEU A   1      25.836 -37.171  -4.075  0.00  0.00    +0.000 C 
ENDBRANCH  11  12
ENDBRANCH   1  11
TORSDOF 6
REMARK  Name = ../refined-set-2016/4pmm/4pmm_pocket.pdb
REMARK  248 active torsions:
REMARK  status: ('A' for Active; 'I' for Inactive)
REMARK    1  A    between atoms: _1  and  _3
REMARK    2  A    between atoms: _3  and  _4
REMARK    3  A    between atoms: _3  and  _6
REMARK    4  A    between atoms: _6  and  _7
REMARK    5  A    between atoms: _17  and  _19
REMARK    6  A    between atoms: _19  and  _20
REMARK    7  A    between atoms: _19  and  _22
REMARK    8  A    between atoms: _22  and  _23
REMARK    9  A    between atoms: _26  and  _28
REMARK   10  A    between atoms: _28  and  _29
REMARK   11  A    between atoms: _31  and  _33
REMARK   12  A    between atoms: _33  and  _34
REMARK   13  A    between atoms: _36  and  _38
REMARK   14  A    between atoms: _38  and  _39
REMARK   15  A    between atoms: _38  and  _41
REMARK   16  A    between atoms: _41  and  _42
REMARK   17  A    between atoms: _42  and  _43
REMARK   18  A    between atoms: _43  and  _44
REMARK   19  A    between atoms: _44  and  _45
REMARK   20  A    between atoms: _49  and  _51
REMARK   21  A    between atoms: _51  and  _52
REMARK   22  A    between atoms: _51  and  _54
REMARK   23  A    between atoms: _57  and  _59
REMARK   24  A    between atoms: _59  and  _60
REMARK   25  A    between atoms: _59  and  _62
REMARK   26  A    between atoms: _62  and  _63
REMARK   27  A    between atoms: _69  and  _71
REMARK   28  A    between atoms: _71  and  _72
REMARK   29  A    between atoms: _71  and  _74
REMARK   30  A    between atoms: _74  and  _75
REMARK   31  A    between atoms: _78  and  _80
REMARK   32  A    between atoms: _80  and  _81
REMARK   33  A    between atoms: _84  and  _86
REMARK   34  A    between atoms: _86  and  _87
REMARK   35  A    between atoms: _86  and  _89
REMARK   36  A    between atoms: _92  and  _94
REMARK   37  A    between atoms: _94  and  _95
REMARK   38  A    between atoms: _98  and  _100
REMARK   39  A    between atoms: _100  and  _101
REMARK   40  A    between atoms: _100  and  _103
REMARK   41  A    between atoms: _106  and  _108
REMARK   42  A    between atoms: _108  and  _109
REMARK   43  A    between atoms: _108  and  _111
REMARK   44  A    between atoms: _111  and  _112
REMARK   45  A    between atoms: _112  and  _113
REMARK   46  A    between atoms: _113  and  _114
REMARK   47  A    between atoms: _114  and  _115
REMARK   48  A    between atoms: _119  and  _121
REMARK   49  A    between atoms: _121  and  _122
REMARK   50  A    between atoms: _125  and  _127
REMARK   51  A    between atoms: _127  and  _128
REMARK   52  A    between atoms: _127  and  _130
REMARK   53  A    between atoms: _130  and  _131
REMARK   54  A    between atoms: _134  and  _136
REMARK   55  A    between atoms: _136  and  _137
REMARK   56  A    between atoms: _136  and  _139
REMARK   57  A    between atoms: _139  and  _140
REMARK   58  A    between atoms: _146  and  _148
REMARK   59  A    between atoms: _148  and  _149
REMARK   60  A    between atoms: _148  and  _151
REMARK   61  A    between atoms: _151  and  _152
REMARK   62  A    between atoms: _152  and  _153
REMARK   63  A    between atoms: _153  and  _154
REMARK   64  A    between atoms: _163  and  _165
REMARK   65  A    between atoms: _165  and  _166
REMARK   66  A    between atoms: _165  and  _168
REMARK   67  A    between atoms: _168  and  _169
REMARK   68  A    between atoms: _169  and  _170
REMARK   69  A    between atoms: _173  and  _175
REMARK   70  A    between atoms: _175  and  _176
REMARK   71  A    between atoms: _179  and  _181
REMARK   72  A    between atoms: _181  and  _182
REMARK   73  A    between atoms: _181  and  _184
REMARK   74  A    between atoms: _184  and  _185
REMARK   75  A    between atoms: _188  and  _190
REMARK   76  A    between atoms: _190  and  _191
REMARK   77  A    between atoms: _190  and  _193
REMARK   78  A    between atoms: _193  and  _194
REMARK   79  A    between atoms: _197  and  _199
REMARK   80  A    between atoms: _199  and  _200
REMARK   81  A    between atoms: _199  and  _202
REMARK   82  A    between atoms: _202  and  _203
REMARK   83  A    between atoms: _206  and  _208
REMARK   84  A    between atoms: _208  and  _209
REMARK   85  A    between atoms: _208  and  _211
REMARK   86  A    between atoms: _211  and  _212
REMARK   87  A    between atoms: _217  and  _219
REMARK   88  A    between atoms: _219  and  _220
REMARK   89  A    between atoms: _219  and  _222
REMARK   90  A    between atoms: _222  and  _223
REMARK   91  A    between atoms: _226  and  _228
REMARK   92  A    between atoms: _228  and  _229
REMARK   93  A    between atoms: _228  and  _231
REMARK   94  A    between atoms: _234  and  _236
REMARK   95  A    between atoms: _236  and  _237
REMARK   96  A    between atoms: _236  and  _239
REMARK   97  A    between atoms: _239  and  _240
REMARK   98  A    between atoms: _240  and  _241
REMARK   99  A    between atoms: _241  and  _242
REMARK  100  A    between atoms: _251  and  _253
REMARK  101  A    between atoms: _253  and  _254
REMARK  102  A    between atoms: _253  and  _256
REMARK  103  A    between atoms: _256  and  _257
REMARK  104  A    between atoms: _263  and  _265
REMARK  105  A    between atoms: _265  and  _266
REMARK  106  A    between atoms: _265  and  _268
REMARK  107  A    between atoms: _268  and  _269
REMARK  108  A    between atoms: _269  and  _270
REMARK  109  A    between atoms: _272  and  _274
REMARK  110  A    between atoms: _274  and  _275
REMARK  111  A    between atoms: _274  and  _277
REMARK  112  A    between atoms: _280  and  _282
REMARK  113  A    between atoms: _282  and  _283
REMARK  114  A    between atoms: _282  and  _285
REMARK  115  A    between atoms: _285  and  _286
REMARK  116  A    between atoms: _292  and  _294
REMARK  117  A    between atoms: _294  and  _295
REMARK  118  A    between atoms: _294  and  _297
REMARK  119  A    between atoms: _297  and  _298
REMARK  120  A    between atoms: _298  and  _299
REMARK  121  A    between atoms: _302  and  _304
REMARK  122  A    between atoms: _304  and  _305
REMARK  123  A    between atoms: _304  and  _307
REMARK  124  A    between atoms: _307  and  _308
REMARK  125  A    between atoms: _313  and  _314
REMARK  126  A    between atoms: _316  and  _318
REMARK  127  A    between atoms: _318  and  _319
REMARK  128  A    between atoms: _318  and  _321
REMARK  129  A    between atoms: _321  and  _322
REMARK  130  A    between atoms: _322  and  _323
REMARK  131  A    between atoms: _325  and  _327
REMARK  132  A    between atoms: _327  and  _328
REMARK  133  A    between atoms: _327  and  _330
REMARK  134  A    between atoms: _330  and  _331
REMARK  135  A    between atoms: _331  and  _332
REMARK  136  A    between atoms: _332  and  _333
REMARK  137  A    between atoms: _342  and  _344
REMARK  138  A    between atoms: _344  and  _345
REMARK  139  A    between atoms: _344  and  _347
REMARK  140  A    between atoms: _347  and  _348
REMARK  141  A    between atoms: _353  and  _355
REMARK  142  A    between atoms: _355  and  _356
REMARK  143  A    between atoms: _358  and  _360
REMARK  144  A    between atoms: _360  and  _361
REMARK  145  A    between atoms: _360  and  _363
REMARK  146  A    between atoms: _363  and  _364
REMARK  147  A    between atoms: _367  and  _369
REMARK  148  A    between atoms: _369  and  _370
REMARK  149  A    between atoms: _369  and  _372
REMARK  150  A    between atoms: _372  and  _373
REMARK  151  A    between atoms: _376  and  _378
REMARK  152  A    between atoms: _378  and  _379
REMARK  153  A    between atoms: _381  and  _383
REMARK  154  A    between atoms: _383  and  _384
REMARK  155  A    between atoms: _383  and  _386
REMARK  156  A    between atoms: _386  and  _387
REMARK  157  A    between atoms: _387  and  _388
REMARK  158  A    between atoms: _390  and  _392
REMARK  159  A    between atoms: _392  and  _393
REMARK  160  A    between atoms: _392  and  _395
REMARK  161  A    between atoms: _395  and  _396
REMARK  162  A    between atoms: _401  and  _402
REMARK  163  A    between atoms: _404  and  _406
REMARK  164  A    between atoms: _406  and  _407
REMARK  165  A    between atoms: _406  and  _409
REMARK  166  A    between atoms: _409  and  _410
REMARK  167  A    between atoms: _413  and  _415
REMARK  168  A    between atoms: _415  and  _416
REMARK  169  A    between atoms: _415  and  _418
REMARK  170  A    between atoms: _418  and  _419
REMARK  171  A    between atoms: _425  and  _427
REMARK  172  A    between atoms: _427  and  _428
REMARK  173  A    between atoms: _427  and  _430
REMARK  174  A    between atoms: _433  and  _435
REMARK  175  A    between atoms: _435  and  _436
REMARK  176  A    between atoms: _435  and  _438
REMARK  177  A    between atoms: _438  and  _439
REMARK  178  A    between atoms: _444  and  _446
REMARK  179  A    between atoms: _446  and  _447
REMARK  180  A    between atoms: _446  and  _449
REMARK  181  A    between atoms: _449  and  _450
REMARK  182  A    between atoms: _453  and  _455
REMARK  183  A    between atoms: _455  and  _456
REMARK  184  A    between atoms: _455  and  _458
REMARK  185  A    between atoms: _458  and  _459
REMARK  186  A    between atoms: _462  and  _464
REMARK  187  A    between atoms: _464  and  _465
REMARK  188  A    between atoms: _464  and  _467
REMARK  189  A    between atoms: _467  and  _468
REMARK  190  A    between atoms: _468  and  _469
REMARK  191  A    between atoms: _469  and  _470
REMARK  192  A    between atoms: _479  and  _481
REMARK  193  A    between atoms: _481  and  _482
REMARK  194  A    between atoms: _481  and  _484
REMARK  195  A    between atoms: _484  and  _485
REMARK  196  A    between atoms: _490  and  _492
REMARK  197  A    between atoms: _492  and  _493
REMARK  198  A    between atoms: _492  and  _495
REMARK  199  A    between atoms: _497  and  _499
REMARK  200  A    between atoms: _499  and  _500
REMARK  201  A    between atoms: _499  and  _502
REMARK  202  A    between atoms: _502  and  _503
REMARK  203  A    between atoms: _506  and  _508
REMARK  204  A    between atoms: _508  and  _509
REMARK  205  A    between atoms: _508  and  _511
REMARK  206  A    between atoms: _514  and  _516
REMARK  207  A    between atoms: _516  and  _517
REMARK  208  A    between atoms: _519  and  _521
REMARK  209  A    between atoms: _521  and  _522
REMARK  210  A    between atoms: _521  and  _524
REMARK  211  A    between atoms: _524  and  _525
REMARK  212  A    between atoms: _525  and  _526
REMARK  213  A    between atoms: _526  and  _527
REMARK  214  A    between atoms: _527  and  _528
REMARK  215  A    between atoms: _532  and  _534
REMARK  216  A    between atoms: _534  and  _535
REMARK  217  A    between atoms: _534  and  _537
REMARK  218  A    between atoms: _537  and  _538
REMARK  219  A    between atoms: _541  and  _543
REMARK  220  A    between atoms: _543  and  _544
REMARK  221  A    between atoms: _546  and  _548
REMARK  222  A    between atoms: _548  and  _549
REMARK  223  A    between atoms: _548  and  _551
REMARK  224  A    between atoms: _551  and  _552
REMARK  225  A    between atoms: _555  and  _557
REMARK  226  A    between atoms: _557  and  _558
REMARK  227  A    between atoms: _557  and  _560
REMARK  228  A    between atoms: _560  and  _561
REMARK  229  A    between atoms: _567  and  _569
REMARK  230  A    between atoms: _569  and  _570
REMARK  231  A    between atoms: _572  and  _574
REMARK  232  A    between atoms: _574  and  _575
REMARK  233  A    between atoms: _574  and  _577
REMARK  234  A    between atoms: _577  and  _578
REMARK  235  A    between atoms: _578  and  _579
REMARK  236  A    between atoms: _581  and  _583
REMARK  237  A    between atoms: _583  and  _584
REMARK  238  A    between atoms: _583  and  _586
REMARK  239  A    between atoms: _586  and  _587
REMARK  240  A    between atoms: _589  and  _591
REMARK  241  A    between atoms: _591  and  _592
REMARK  242  A    between atoms: _591  and  _594
REMARK  243  A    between atoms: _594  and  _595
REMARK  244  A    between atoms: _598  and  _600
REMARK  245  A    between atoms: _600  and  _601
REMARK  246  A    between atoms: _600  and  _603
REMARK  247  A    between atoms: _603  and  _604
REMARK  248  A    between atoms: _609  and  _610
REMARK                            x       y       z     vdW  Elec       q    Type
REMARK                         _______ _______ _______ _____ _____    ______ ____
ROOT
ATOM      1  C   VAL A   3      26.079 -38.887  -8.497  0.00  0.00    +0.241 C 
ATOM      2  N   PHE A   4      26.531 -39.988  -7.883  0.00  0.00    -0.297 N 
ATOM      3  H   PHE A   4      27.504 -40.288  -8.096  0.00  0.00    +0.150 HD
ATOM      4  O   VAL A   3      24.953 -38.432  -8.329  0.00  0.00    -0.273 OA
ENDROOT
BRANCH   2   5
ATOM      5  CA  PHE A   4      25.769 -40.804  -6.938  0.00  0.00    +0.153 C 
BRANCH   5   6
ATOM      6  C   PHE A   4      26.402 -40.823  -5.565  0.00  0.00    +0.241 C 
ATOM      7  N   LEU A   5      25.570 -41.010  -4.536  0.00  0.00    -0.297 N 
ATOM      8  H   LEU A   5      24.547 -40.989  -4.720  0.00  0.00    +0.150 HD
ATOM      9  O   PHE A   4      27.626 -40.756  -5.446  0.00  0.00    -0.273 OA
BRANCH   7  10
ATOM     10  CA  LEU A   5      26.018 -41.241  -3.177  0.00  0.00    +0.149 C 
BRANCH  10  11
ATOM     11  C   LEU A   5      26.246 -42.749  -3.198  0.00  0.00    +0.241 C 
ATOM     12  N   ALA A   6      27.299 -43.218  -2.554  0.00  0.00    -0.298 N 
ATOM     13  H   ALA A   6      27.930 -42.561  -2.053  0.00  0.00    +0.150 HD
ATOM     14  O   LEU A   5      25.459 -43.483  -3.809  0.00  0.00    -0.273 OA
BRANCH  12  15
ATOM     15  CA  ALA A   6      27.584 -44.641  -2.539  0.00  0.00    +0.137 C 
ATOM     16  CB  ALA A   6      28.369 -45.030  -3.806  0.00  0.00    +0.030 C 
BRANCH  15  17
ATOM     17  C   ALA A   6      28.350 -45.036  -1.310  0.00  0.00    +0.227 C 
ATOM     18  O   ALA A   6      28.870 -44.197  -0.581  0.00  0.00    -0.286 OA
ENDBRANCH  15  17
ENDBRANCH  12  15
ENDBRANCH  10  11
BRANCH  10  19
ATOM     19  CB  LEU A   5      24.925 -40.931  -2.137  0.00  0.00    +0.029 C 
BRANCH  19  20
ATOM     20  CG  LEU A   5      25.284 -41.281  -0.687  0.00  0.00    +0.002 C 
ATOM     21  CD2 LEU A   5      24.117 -41.102   0.240  0.00  0.00    +0.000 C 
ATOM     22  CD1 LEU A   5      26.448 -40.456  -0.196  0.00  0.00    +0.000 C 
ENDBRANCH  19  20
ENDBRANCH  10  19
ENDBRANCH   7  10
ENDBRANCH   5   6
BRANCH   5  23
ATOM     23  CB  PHE A   4      25.766 -42.290  -7.384  0.00  0.00    +0.055 C 
BRANCH  23  24
ATOM     24  CG  PHE A   4      25.178 -42.626  -8.731  0.00  0.00    -0.020 A 
ATOM     25  CD2 PHE A   4      23.855 -43.037  -8.846  0.00  0.00    -0.004 A 
ATOM     26  CE2 PHE A   4      23.309 -43.354 -10.095  0.00  0.00    -0.000 A 
ATOM     27  CZ  PHE A   4      24.092 -43.280 -11.230  0.00  0.00    -0.000 A 
ATOM     28  CE1 PHE A   4      25.419 -42.903 -11.131  0.00  0.00    -0.000 A 
ATOM     29  CD1 PHE A   4      25.964 -42.587  -9.881  0.00  0.00    -0.004 A 
ENDBRANCH  23  24
ENDBRANCH   5  23
ENDBRANCH   2   5
BRANCH   1  30
ATOM     30  CA  VAL A   3      27.041 -38.183  -9.461  0.00  0.00    +0.149 C 
BRANCH  30  32
ATOM     31  C   LYS A   2      26.868 -38.765 -11.858  0.00  0.00    +0.241 C 
ATOM     32  N   VAL A   3      26.427 -38.060 -10.793  0.00  0.00    -0.297 N 
ATOM     33  H   VAL A   3      25.626 -37.408 -10.919  0.00  0.00    +0.150 HD
ATOM     34  O   LYS A   2      27.802 -39.560 -11.783  0.00  0.00    -0.273 OA
BRANCH  31  35
ATOM     35  CA  LYS A   2      26.154 -38.588 -13.207  0.00  0.00    +0.149 C 
BRANCH  35  37
ATOM     36  C   GLY A   1      27.176 -37.327 -15.138  0.00  0.00    +0.240 C 
ATOM     37  N   LYS A   2      27.164 -38.359 -14.260  0.00  0.00    -0.297 N 
ATOM     38  H   LYS A   2      27.936 -39.052 -14.334  0.00  0.00    +0.150 HD
ATOM     39  O   GLY A   1      26.317 -36.442 -15.161  0.00  0.00    -0.274 OA
BRANCH  36  40
ATOM     40  CA  GLY A   1      28.335 -37.305 -16.113  0.00  0.00    +0.169 C 
BRANCH  40  41
ATOM     41  N   GLY A   1      28.282 -36.354 -17.219  0.00  0.00    -0.236 NA
ATOM     42  H   GLY A   1      27.700 -35.497 -17.129  0.00  0.00    +0.142 HD
ENDBRANCH  40  41
ENDBRANCH  36  40
ENDBRANCH  35  37
BRANCH  35  43
ATOM     43  CB  LYS A   2      25.321 -39.862 -13.498  0.00  0.00    +0.029 C 
BRANCH  43  44
ATOM     44  CG  LYS A   2      24.603 -39.892 -14.849  0.00  0.00    +0.000 C 
BRANCH  44  45
ATOM     45  CD  LYS A   2      23.320 -40.731 -14.805  0.00  0.00    -0.024 C 
BRANCH  45  46
ATOM     46  CE  LYS A   2      23.517 -42.168 -15.230  0.00  0.00    -0.086 C 
BRANCH  46  47
ATOM     47  NZ  LYS A   2      22.295 -42.987 -14.992  0.00  0.00    +0.380 N 
ATOM     48  HZ1 LYS A   2      22.063 -42.974 -13.978  0.00  0.00    -0.089 HD
ATOM     49  HZ2 LYS A   2      22.470 -43.966 -15.296  0.00  0.00    -0.089 HD
ATOM     50  HZ3 LYS A   2      21.502 -42.590 -15.536  0.00  0.00    -0.089 HD
ENDBRANCH  46  47
ENDBRANCH  45  46
ENDBRANCH  44  45
ENDBRANCH  43  44
ENDBRANCH  35  43
ENDBRANCH  31  35
ENDBRANCH  30  32
BRANCH  30  51
ATOM     51  CB  VAL A   3      27.631 -36.862  -8.872  0.00  0.00    +0.027 C 
ATOM     52  CG2 VAL A   3      28.247 -37.105  -7.489  0.00  0.00    +0.002 C 
ATOM     53  CG1 VAL A   3      28.688 -36.266  -9.802  0.00  0.00    +0.002 C 
ENDBRANCH  30  51
ENDBRANCH   1  30
TORSDOF 22
REMARK  Name = ../refined-set-2016/4pmm/4pmm_pocket.pdb
REMARK  248 active torsions:
REMARK  status: ('A' for Active; 'I' for Inactive)
REMARK    1  A    between atoms: _1  and  _3
REMARK    2  A    between atoms: _3  and  _4
REMARK    3  A    between atoms: _3  and  _6
REMARK    4  A    between atoms: _6  and  _7
REMARK    5  A    between atoms: _17  and  _19
REMARK    6  A    between atoms: _19  and  _20
REMARK    7  A    between atoms: _19  and  _22
REMARK    8  A    between atoms: _22  and  _23
REMARK    9  A    between atoms: _26  and  _28
REMARK   10  A    between atoms: _28  and  _29
REMARK   11  A    between atoms: _31  and  _33
REMARK   12  A    between atoms: _33  and  _34
REMARK   13  A    between atoms: _36  and  _38
REMARK   14  A    between atoms: _38  and  _39
REMARK   15  A    between atoms: _38  and  _41
REMARK   16  A    between atoms: _41  and  _42
REMARK   17  A    between atoms: _42  and  _43
REMARK   18  A    between atoms: _43  and  _44
REMARK   19  A    between atoms: _44  and  _45
REMARK   20  A    between atoms: _49  and  _51
REMARK   21  A    between atoms: _51  and  _52
REMARK   22  A    between atoms: _51  and  _54
REMARK   23  A    between atoms: _57  and  _59
REMARK   24  A    between atoms: _59  and  _60
REMARK   25  A    between atoms: _59  and  _62
REMARK   26  A    between atoms: _62  and  _63
REMARK   27  A    between atoms: _69  and  _71
REMARK   28  A    between atoms: _71  and  _72
REMARK   29  A    between atoms: _71  and  _74
REMARK   30  A    between atoms: _74  and  _75
REMARK   31  A    between atoms: _78  and  _80
REMARK   32  A    between atoms: _80  and  _81
REMARK   33  A    between atoms: _84  and  _86
REMARK   34  A    between atoms: _86  and  _87
REMARK   35  A    between atoms: _86  and  _89
REMARK   36  A    between atoms: _92  and  _94
REMARK   37  A    between atoms: _94  and  _95
REMARK   38  A    between atoms: _98  and  _100
REMARK   39  A    between atoms: _100  and  _101
REMARK   40  A    between atoms: _100  and  _103
REMARK   41  A    between atoms: _106  and  _108
REMARK   42  A    between atoms: _108  and  _109
REMARK   43  A    between atoms: _108  and  _111
REMARK   44  A    between atoms: _111  and  _112
REMARK   45  A    between atoms: _112  and  _113
REMARK   46  A    between atoms: _113  and  _114
REMARK   47  A    between atoms: _114  and  _115
REMARK   48  A    between atoms: _119  and  _121
REMARK   49  A    between atoms: _121  and  _122
REMARK   50  A    between atoms: _125  and  _127
REMARK   51  A    between atoms: _127  and  _128
REMARK   52  A    between atoms: _127  and  _130
REMARK   53  A    between atoms: _130  and  _131
REMARK   54  A    between atoms: _134  and  _136
REMARK   55  A    between atoms: _136  and  _137
REMARK   56  A    between atoms: _136  and  _139
REMARK   57  A    between atoms: _139  and  _140
REMARK   58  A    between atoms: _146  and  _148
REMARK   59  A    between atoms: _148  and  _149
REMARK   60  A    between atoms: _148  and  _151
REMARK   61  A    between atoms: _151  and  _152
REMARK   62  A    between atoms: _152  and  _153
REMARK   63  A    between atoms: _153  and  _154
REMARK   64  A    between atoms: _163  and  _165
REMARK   65  A    between atoms: _165  and  _166
REMARK   66  A    between atoms: _165  and  _168
REMARK   67  A    between atoms: _168  and  _169
REMARK   68  A    between atoms: _169  and  _170
REMARK   69  A    between atoms: _173  and  _175
REMARK   70  A    between atoms: _175  and  _176
REMARK   71  A    between atoms: _179  and  _181
REMARK   72  A    between atoms: _181  and  _182
REMARK   73  A    between atoms: _181  and  _184
REMARK   74  A    between atoms: _184  and  _185
REMARK   75  A    between atoms: _188  and  _190
REMARK   76  A    between atoms: _190  and  _191
REMARK   77  A    between atoms: _190  and  _193
REMARK   78  A    between atoms: _193  and  _194
REMARK   79  A    between atoms: _197  and  _199
REMARK   80  A    between atoms: _199  and  _200
REMARK   81  A    between atoms: _199  and  _202
REMARK   82  A    between atoms: _202  and  _203
REMARK   83  A    between atoms: _206  and  _208
REMARK   84  A    between atoms: _208  and  _209
REMARK   85  A    between atoms: _208  and  _211
REMARK   86  A    between atoms: _211  and  _212
REMARK   87  A    between atoms: _217  and  _219
REMARK   88  A    between atoms: _219  and  _220
REMARK   89  A    between atoms: _219  and  _222
REMARK   90  A    between atoms: _222  and  _223
REMARK   91  A    between atoms: _226  and  _228
REMARK   92  A    between atoms: _228  and  _229
REMARK   93  A    between atoms: _228  and  _231
REMARK   94  A    between atoms: _234  and  _236
REMARK   95  A    between atoms: _236  and  _237
REMARK   96  A    between atoms: _236  and  _239
REMARK   97  A    between atoms: _239  and  _240
REMARK   98  A    between atoms: _240  and  _241
REMARK   99  A    between atoms: _241  and  _242
REMARK  100  A    between atoms: _251  and  _253
REMARK  101  A    between atoms: _253  and  _254
REMARK  102  A    between atoms: _253  and  _256
REMARK  103  A    between atoms: _256  and  _257
REMARK  104  A    between atoms: _263  and  _265
REMARK  105  A    between atoms: _265  and  _266
REMARK  106  A    between atoms: _265  and  _268
REMARK  107  A    between atoms: _268  and  _269
REMARK  108  A    between atoms: _269  and  _270
REMARK  109  A    between atoms: _272  and  _274
REMARK  110  A    between atoms: _274  and  _275
REMARK  111  A    between atoms: _274  and  _277
REMARK  112  A    between atoms: _280  and  _282
REMARK  113  A    between atoms: _282  and  _283
REMARK  114  A    between atoms: _282  and  _285
REMARK  115  A    between atoms: _285  and  _286
REMARK  116  A    between atoms: _292  and  _294
REMARK  117  A    between atoms: _294  and  _295
REMARK  118  A    between atoms: _294  and  _297
REMARK  119  A    between atoms: _297  and  _298
REMARK  120  A    between atoms: _298  and  _299
REMARK  121  A    between atoms: _302  and  _304
REMARK  122  A    between atoms: _304  and  _305
REMARK  123  A    between atoms: _304  and  _307
REMARK  124  A    between atoms: _307  and  _308
REMARK  125  A    between atoms: _313  and  _314
REMARK  126  A    between atoms: _316  and  _318
REMARK  127  A    between atoms: _318  and  _319
REMARK  128  A    between atoms: _318  and  _321
REMARK  129  A    between atoms: _321  and  _322
REMARK  130  A    between atoms: _322  and  _323
REMARK  131  A    between atoms: _325  and  _327
REMARK  132  A    between atoms: _327  and  _328
REMARK  133  A    between atoms: _327  and  _330
REMARK  134  A    between atoms: _330  and  _331
REMARK  135  A    between atoms: _331  and  _332
REMARK  136  A    between atoms: _332  and  _333
REMARK  137  A    between atoms: _342  and  _344
REMARK  138  A    between atoms: _344  and  _345
REMARK  139  A    between atoms: _344  and  _347
REMARK  140  A    between atoms: _347  and  _348
REMARK  141  A    between atoms: _353  and  _355
REMARK  142  A    between atoms: _355  and  _356
REMARK  143  A    between atoms: _358  and  _360
REMARK  144  A    between atoms: _360  and  _361
REMARK  145  A    between atoms: _360  and  _363
REMARK  146  A    between atoms: _363  and  _364
REMARK  147  A    between atoms: _367  and  _369
REMARK  148  A    between atoms: _369  and  _370
REMARK  149  A    between atoms: _369  and  _372
REMARK  150  A    between atoms: _372  and  _373
REMARK  151  A    between atoms: _376  and  _378
REMARK  152  A    between atoms: _378  and  _379
REMARK  153  A    between atoms: _381  and  _383
REMARK  154  A    between atoms: _383  and  _384
REMARK  155  A    between atoms: _383  and  _386
REMARK  156  A    between atoms: _386  and  _387
REMARK  157  A    between atoms: _387  and  _388
REMARK  158  A    between atoms: _390  and  _392
REMARK  159  A    between atoms: _392  and  _393
REMARK  160  A    between atoms: _392  and  _395
REMARK  161  A    between atoms: _395  and  _396
REMARK  162  A    between atoms: _401  and  _402
REMARK  163  A    between atoms: _404  and  _406
REMARK  164  A    between atoms: _406  and  _407
REMARK  165  A    between atoms: _406  and  _409
REMARK  166  A    between atoms: _409  and  _410
REMARK  167  A    between atoms: _413  and  _415
REMARK  168  A    between atoms: _415  and  _416
REMARK  169  A    between atoms: _415  and  _418
REMARK  170  A    between atoms: _418  and  _419
REMARK  171  A    between atoms: _425  and  _427
REMARK  172  A    between atoms: _427  and  _428
REMARK  173  A    between atoms: _427  and  _430
REMARK  174  A    between atoms: _433  and  _435
REMARK  175  A    between atoms: _435  and  _436
REMARK  176  A    between atoms: _435  and  _438
REMARK  177  A    between atoms: _438  and  _439
REMARK  178  A    between atoms: _444  and  _446
REMARK  179  A    between atoms: _446  and  _447
REMARK  180  A    between atoms: _446  and  _449
REMARK  181  A    between atoms: _449  and  _450
REMARK  182  A    between atoms: _453  and  _455
REMARK  183  A    between atoms: _455  and  _456
REMARK  184  A    between atoms: _455  and  _458
REMARK  185  A    between atoms: _458  and  _459
REMARK  186  A    between atoms: _462  and  _464
REMARK  187  A    between atoms: _464  and  _465
REMARK  188  A    between atoms: _464  and  _467
REMARK  189  A    between atoms: _467  and  _468
REMARK  190  A    between atoms: _468  and  _469
REMARK  191  A    between atoms: _469  and  _470
REMARK  192  A    between atoms: _479  and  _481
REMARK  193  A    between atoms: _481  and  _482
REMARK  194  A    between atoms: _481  and  _484
REMARK  195  A    between atoms: _484  and  _485
REMARK  196  A    between atoms: _490  and  _492
REMARK  197  A    between atoms: _492  and  _493
REMARK  198  A    between atoms: _492  and  _495
REMARK  199  A    between atoms: _497  and  _499
REMARK  200  A    between atoms: _499  and  _500
REMARK  201  A    between atoms: _499  and  _502
REMARK  202  A    between atoms: _502  and  _503
REMARK  203  A    between atoms: _506  and  _508
REMARK  204  A    between atoms: _508  and  _509
REMARK  205  A    between atoms: _508  and  _511
REMARK  206  A    between atoms: _514  and  _516
REMARK  207  A    between atoms: _516  and  _517
REMARK  208  A    between atoms: _519  and  _521
REMARK  209  A    between atoms: _521  and  _522
REMARK  210  A    between atoms: _521  and  _524
REMARK  211  A    between atoms: _524  and  _525
REMARK  212  A    between atoms: _525  and  _526
REMARK  213  A    between atoms: _526  and  _527
REMARK  214  A    between atoms: _527  and  _528
REMARK  215  A    between atoms: _532  and  _534
REMARK  216  A    between atoms: _534  and  _535
REMARK  217  A    between atoms: _534  and  _537
REMARK  218  A    between atoms: _537  and  _538
REMARK  219  A    between atoms: _541  and  _543
REMARK  220  A    between atoms: _543  and  _544
REMARK  221  A    between atoms: _546  and  _548
REMARK  222  A    between atoms: _548  and  _549
REMARK  223  A    between atoms: _548  and  _551
REMARK  224  A    between atoms: _551  and  _552
REMARK  225  A    between atoms: _555  and  _557
REMARK  226  A    between atoms: _557  and  _558
REMARK  227  A    between atoms: _557  and  _560
REMARK  228  A    between atoms: _560  and  _561
REMARK  229  A    between atoms: _567  and  _569
REMARK  230  A    between atoms: _569  and  _570
REMARK  231  A    between atoms: _572  and  _574
REMARK  232  A    between atoms: _574  and  _575
REMARK  233  A    between atoms: _574  and  _577
REMARK  234  A    between atoms: _577  and  _578
REMARK  235  A    between atoms: _578  and  _579
REMARK  236  A    between atoms: _581  and  _583
REMARK  237  A    between atoms: _583  and  _584
REMARK  238  A    between atoms: _583  and  _586
REMARK  239  A    between atoms: _586  and  _587
REMARK  240  A    between atoms: _589  and  _591
REMARK  241  A    between atoms: _591  and  _592
REMARK  242  A    between atoms: _591  and  _594
REMARK  243  A    between atoms: _594  and  _595
REMARK  244  A    between atoms: _598  and  _600
REMARK  245  A    between atoms: _600  and  _601
REMARK  246  A    between atoms: _600  and  _603
REMARK  247  A    between atoms: _603  and  _604
REMARK  248  A    between atoms: _609  and  _610
REMARK                            x       y       z     vdW  Elec       q    Type
REMARK                         _______ _______ _______ _____ _____    ______ ____
ROOT
ATOM      1  C   VAL A   3      30.280 -40.786  -8.566  0.00  0.00    +0.241 C 
ATOM      2  O   VAL A   3      29.088 -40.522  -8.713  0.00  0.00    -0.273 OA
ATOM      3  N   LYS A   4      31.228 -40.448  -9.449  0.00  0.00    -0.297 N 
ATOM      4  H   LYS A   4      32.219 -40.671  -9.226  0.00  0.00    +0.150 HD
ENDROOT
BRANCH   3   5
ATOM      5  CA  LYS A   4      30.927 -39.779 -10.713  0.00  0.00    +0.149 C 
BRANCH   5   6
ATOM      6  C   LYS A   4      31.023 -40.842 -11.835  0.00  0.00    +0.241 C 
ATOM      7  O   LYS A   4      32.072 -41.468 -12.015  0.00  0.00    -0.273 OA
ATOM      8  N   ALA A   5      29.927 -41.047 -12.559  0.00  0.00    -0.298 N 
ATOM      9  H   ALA A   5      29.077 -40.495 -12.323  0.00  0.00    +0.150 HD
BRANCH   8  10
ATOM     10  CA  ALA A   5      29.840 -41.998 -13.665  0.00  0.00    +0.137 C 
ATOM     11  CB  ALA A   5      28.501 -42.739 -13.621  0.00  0.00    +0.030 C 
BRANCH  10  12
ATOM     12  C   ALA A   5      29.965 -41.247 -14.976  0.00  0.00    +0.227 C 
ATOM     13  O   ALA A   5      29.260 -40.252 -15.170  0.00  0.00    -0.286 OA
ENDBRANCH  10  12
ENDBRANCH   8  10
ENDBRANCH   5   6
BRANCH   5  14
ATOM     14  CB  LYS A   4      31.899 -38.614 -10.963  0.00  0.00    +0.029 C 
BRANCH  14  15
ATOM     15  CG  LYS A   4      31.575 -37.750 -12.182  0.00  0.00    +0.000 C 
BRANCH  15  16
ATOM     16  CD  LYS A   4      32.760 -36.840 -12.502  0.00  0.00    -0.024 C 
BRANCH  16  17
ATOM     17  CE  LYS A   4      32.561 -35.982 -13.725  0.00  0.00    -0.086 C 
BRANCH  17  18
ATOM     18  NZ  LYS A   4      32.255 -34.571 -13.362  0.00  0.00    +0.380 N 
ATOM     19  HZ1 LYS A   4      31.384 -34.541 -12.795  0.00  0.00    -0.089 HD
ATOM     20  HZ2 LYS A   4      33.043 -34.178 -12.810  0.00  0.00    -0.089 HD
ATOM     21  HZ3 LYS A   4      32.125 -34.012 -14.229  0.00  0.00    -0.089 HD
ENDBRANCH  17  18
ENDBRANCH  16  17
ENDBRANCH  15  16
ENDBRANCH  14  15
ENDBRANCH   5  14
ENDBRANCH   3   5
BRANCH   1  22
ATOM     22  CA  VAL A   3      30.750 -41.521  -7.332  0.00  0.00    +0.149 C 
BRANCH  22  25
ATOM     23  C   ALA A   2      31.073 -40.310  -5.236  0.00  0.00    +0.241 C 
ATOM     24  O   ALA A   2      32.292 -40.256  -5.390  0.00  0.00    -0.273 OA
ATOM     25  N   VAL A   3      30.264 -40.894  -6.113  0.00  0.00    -0.297 N 
ATOM     26  H   VAL A   3      29.242 -40.903  -5.920  0.00  0.00    +0.150 HD
BRANCH  23  27
ATOM     27  CA  ALA A   2      30.430 -39.760  -3.960  0.00  0.00    +0.149 C 
ATOM     28  CB  ALA A   2      30.435 -38.242  -3.941  0.00  0.00    +0.031 C 
BRANCH  27  31
ATOM     29  C   VAL A   1      30.724 -41.148  -1.983  0.00  0.00    +0.238 C 
ATOM     30  O   VAL A   1      29.545 -41.488  -1.971  0.00  0.00    -0.274 OA
ATOM     31  N   ALA A   2      31.231 -40.302  -2.881  0.00  0.00    -0.297 N 
ATOM     32  H   ALA A   2      32.230 -40.023  -2.805  0.00  0.00    +0.150 HD
BRANCH  29  33
ATOM     33  CA  VAL A   1      31.690 -41.731  -0.976  0.00  0.00    +0.145 C 
BRANCH  33  34
ATOM     34  CB  VAL A   1      32.699 -42.700  -1.711  0.00  0.00    +0.025 C 
ATOM     35  CG2 VAL A   1      33.788 -43.216  -0.787  0.00  0.00    +0.002 C 
ATOM     36  CG1 VAL A   1      31.984 -43.849  -2.432  0.00  0.00    +0.002 C 
ENDBRANCH  33  34
BRANCH  33  37
ATOM     37  N   VAL A   1      30.908 -42.386   0.084  0.00  0.00    -0.238 NA
ATOM     38  H   VAL A   1      30.022 -42.855  -0.194  0.00  0.00    +0.142 HD
ENDBRANCH  33  37
ENDBRANCH  29  33
ENDBRANCH  27  31
ENDBRANCH  23  27
ENDBRANCH  22  25
BRANCH  22  39
ATOM     39  CB  VAL A   3      30.398 -43.043  -7.360  0.00  0.00    +0.027 C 
ATOM     40  CG2 VAL A   3      31.097 -43.793  -6.223  0.00  0.00    +0.002 C 
ATOM     41  CG1 VAL A   3      30.734 -43.677  -8.707  0.00  0.00    +0.002 C 
ENDBRANCH  22  39
ENDBRANCH   1  22
TORSDOF 17
REMARK  Name = ../refined-set-2016/4pmm/4pmm_pocket.pdb
REMARK  248 active torsions:
REMARK  status: ('A' for Active; 'I' for Inactive)
REMARK    1  A    between atoms: _1  and  _3
REMARK    2  A    between atoms: _3  and  _4
REMARK    3  A    between atoms: _3  and  _6
REMARK    4  A    between atoms: _6  and  _7
REMARK    5  A    between atoms: _17  and  _19
REMARK    6  A    between atoms: _19  and  _20
REMARK    7  A    between atoms: _19  and  _22
REMARK    8  A    between atoms: _22  and  _23
REMARK    9  A    between atoms: _26  and  _28
REMARK   10  A    between atoms: _28  and  _29
REMARK   11  A    between atoms: _31  and  _33
REMARK   12  A    between atoms: _33  and  _34
REMARK   13  A    between atoms: _36  and  _38
REMARK   14  A    between atoms: _38  and  _39
REMARK   15  A    between atoms: _38  and  _41
REMARK   16  A    between atoms: _41  and  _42
REMARK   17  A    between atoms: _42  and  _43
REMARK   18  A    between atoms: _43  and  _44
REMARK   19  A    between atoms: _44  and  _45
REMARK   20  A    between atoms: _49  and  _51
REMARK   21  A    between atoms: _51  and  _52
REMARK   22  A    between atoms: _51  and  _54
REMARK   23  A    between atoms: _57  and  _59
REMARK   24  A    between atoms: _59  and  _60
REMARK   25  A    between atoms: _59  and  _62
REMARK   26  A    between atoms: _62  and  _63
REMARK   27  A    between atoms: _69  and  _71
REMARK   28  A    between atoms: _71  and  _72
REMARK   29  A    between atoms: _71  and  _74
REMARK   30  A    between atoms: _74  and  _75
REMARK   31  A    between atoms: _78  and  _80
REMARK   32  A    between atoms: _80  and  _81
REMARK   33  A    between atoms: _84  and  _86
REMARK   34  A    between atoms: _86  and  _87
REMARK   35  A    between atoms: _86  and  _89
REMARK   36  A    between atoms: _92  and  _94
REMARK   37  A    between atoms: _94  and  _95
REMARK   38  A    between atoms: _98  and  _100
REMARK   39  A    between atoms: _100  and  _101
REMARK   40  A    between atoms: _100  and  _103
REMARK   41  A    between atoms: _106  and  _108
REMARK   42  A    between atoms: _108  and  _109
REMARK   43  A    between atoms: _108  and  _111
REMARK   44  A    between atoms: _111  and  _112
REMARK   45  A    between atoms: _112  and  _113
REMARK   46  A    between atoms: _113  and  _114
REMARK   47  A    between atoms: _114  and  _115
REMARK   48  A    between atoms: _119  and  _121
REMARK   49  A    between atoms: _121  and  _122
REMARK   50  A    between atoms: _125  and  _127
REMARK   51  A    between atoms: _127  and  _128
REMARK   52  A    between atoms: _127  and  _130
REMARK   53  A    between atoms: _130  and  _131
REMARK   54  A    between atoms: _134  and  _136
REMARK   55  A    between atoms: _136  and  _137
REMARK   56  A    between atoms: _136  and  _139
REMARK   57  A    between atoms: _139  and  _140
REMARK   58  A    between atoms: _146  and  _148
REMARK   59  A    between atoms: _148  and  _149
REMARK   60  A    between atoms: _148  and  _151
REMARK   61  A    between atoms: _151  and  _152
REMARK   62  A    between atoms: _152  and  _153
REMARK   63  A    between atoms: _153  and  _154
REMARK   64  A    between atoms: _163  and  _165
REMARK   65  A    between atoms: _165  and  _166
REMARK   66  A    between atoms: _165  and  _168
REMARK   67  A    between atoms: _168  and  _169
REMARK   68  A    between atoms: _169  and  _170
REMARK   69  A    between atoms: _173  and  _175
REMARK   70  A    between atoms: _175  and  _176
REMARK   71  A    between atoms: _179  and  _181
REMARK   72  A    between atoms: _181  and  _182
REMARK   73  A    between atoms: _181  and  _184
REMARK   74  A    between atoms: _184  and  _185
REMARK   75  A    between atoms: _188  and  _190
REMARK   76  A    between atoms: _190  and  _191
REMARK   77  A    between atoms: _190  and  _193
REMARK   78  A    between atoms: _193  and  _194
REMARK   79  A    between atoms: _197  and  _199
REMARK   80  A    between atoms: _199  and  _200
REMARK   81  A    between atoms: _199  and  _202
REMARK   82  A    between atoms: _202  and  _203
REMARK   83  A    between atoms: _206  and  _208
REMARK   84  A    between atoms: _208  and  _209
REMARK   85  A    between atoms: _208  and  _211
REMARK   86  A    between atoms: _211  and  _212
REMARK   87  A    between atoms: _217  and  _219
REMARK   88  A    between atoms: _219  and  _220
REMARK   89  A    between atoms: _219  and  _222
REMARK   90  A    between atoms: _222  and  _223
REMARK   91  A    between atoms: _226  and  _228
REMARK   92  A    between atoms: _228  and  _229
REMARK   93  A    between atoms: _228  and  _231
REMARK   94  A    between atoms: _234  and  _236
REMARK   95  A    between atoms: _236  and  _237
REMARK   96  A    between atoms: _236  and  _239
REMARK   97  A    between atoms: _239  and  _240
REMARK   98  A    between atoms: _240  and  _241
REMARK   99  A    between atoms: _241  and  _242
REMARK  100  A    between atoms: _251  and  _253
REMARK  101  A    between atoms: _253  and  _254
REMARK  102  A    between atoms: _253  and  _256
REMARK  103  A    between atoms: _256  and  _257
REMARK  104  A    between atoms: _263  and  _265
REMARK  105  A    between atoms: _265  and  _266
REMARK  106  A    between atoms: _265  and  _268
REMARK  107  A    between atoms: _268  and  _269
REMARK  108  A    between atoms: _269  and  _270
REMARK  109  A    between atoms: _272  and  _274
REMARK  110  A    between atoms: _274  and  _275
REMARK  111  A    between atoms: _274  and  _277
REMARK  112  A    between atoms: _280  and  _282
REMARK  113  A    between atoms: _282  and  _283
REMARK  114  A    between atoms: _282  and  _285
REMARK  115  A    between atoms: _285  and  _286
REMARK  116  A    between atoms: _292  and  _294
REMARK  117  A    between atoms: _294  and  _295
REMARK  118  A    between atoms: _294  and  _297
REMARK  119  A    between atoms: _297  and  _298
REMARK  120  A    between atoms: _298  and  _299
REMARK  121  A    between atoms: _302  and  _304
REMARK  122  A    between atoms: _304  and  _305
REMARK  123  A    between atoms: _304  and  _307
REMARK  124  A    between atoms: _307  and  _308
REMARK  125  A    between atoms: _313  and  _314
REMARK  126  A    between atoms: _316  and  _318
REMARK  127  A    between atoms: _318  and  _319
REMARK  128  A    between atoms: _318  and  _321
REMARK  129  A    between atoms: _321  and  _322
REMARK  130  A    between atoms: _322  and  _323
REMARK  131  A    between atoms: _325  and  _327
REMARK  132  A    between atoms: _327  and  _328
REMARK  133  A    between atoms: _327  and  _330
REMARK  134  A    between atoms: _330  and  _331
REMARK  135  A    between atoms: _331  and  _332
REMARK  136  A    between atoms: _332  and  _333
REMARK  137  A    between atoms: _342  and  _344
REMARK  138  A    between atoms: _344  and  _345
REMARK  139  A    between atoms: _344  and  _347
REMARK  140  A    between atoms: _347  and  _348
REMARK  141  A    between atoms: _353  and  _355
REMARK  142  A    between atoms: _355  and  _356
REMARK  143  A    between atoms: _358  and  _360
REMARK  144  A    between atoms: _360  and  _361
REMARK  145  A    between atoms: _360  and  _363
REMARK  146  A    between atoms: _363  and  _364
REMARK  147  A    between atoms: _367  and  _369
REMARK  148  A    between atoms: _369  and  _370
REMARK  149  A    between atoms: _369  and  _372
REMARK  150  A    between atoms: _372  and  _373
REMARK  151  A    between atoms: _376  and  _378
REMARK  152  A    between atoms: _378  and  _379
REMARK  153  A    between atoms: _381  and  _383
REMARK  154  A    between atoms: _383  and  _384
REMARK  155  A    between atoms: _383  and  _386
REMARK  156  A    between atoms: _386  and  _387
REMARK  157  A    between atoms: _387  and  _388
REMARK  158  A    between atoms: _390  and  _392
REMARK  159  A    between atoms: _392  and  _393
REMARK  160  A    between atoms: _392  and  _395
REMARK  161  A    between atoms: _395  and  _396
REMARK  162  A    between atoms: _401  and  _402
REMARK  163  A    between atoms: _404  and  _406
REMARK  164  A    between atoms: _406  and  _407
REMARK  165  A    between atoms: _406  and  _409
REMARK  166  A    between atoms: _409  and  _410
REMARK  167  A    between atoms: _413  and  _415
REMARK  168  A    between atoms: _415  and  _416
REMARK  169  A    between atoms: _415  and  _418
REMARK  170  A    between atoms: _418  and  _419
REMARK  171  A    between atoms: _425  and  _427
REMARK  172  A    between atoms: _427  and  _428
REMARK  173  A    between atoms: _427  and  _430
REMARK  174  A    between atoms: _433  and  _435
REMARK  175  A    between atoms: _435  and  _436
REMARK  176  A    between atoms: _435  and  _438
REMARK  177  A    between atoms: _438  and  _439
REMARK  178  A    between atoms: _444  and  _446
REMARK  179  A    between atoms: _446  and  _447
REMARK  180  A    between atoms: _446  and  _449
REMARK  181  A    between atoms: _449  and  _450
REMARK  182  A    between atoms: _453  and  _455
REMARK  183  A    between atoms: _455  and  _456
REMARK  184  A    between atoms: _455  and  _458
REMARK  185  A    between atoms: _458  and  _459
REMARK  186  A    between atoms: _462  and  _464
REMARK  187  A    between atoms: _464  and  _465
REMARK  188  A    between atoms: _464  and  _467
REMARK  189  A    between atoms: _467  and  _468
REMARK  190  A    between atoms: _468  and  _469
REMARK  191  A    between atoms: _469  and  _470
REMARK  192  A    between atoms: _479  and  _481
REMARK  193  A    between atoms: _481  and  _482
REMARK  194  A    between atoms: _481  and  _484
REMARK  195  A    between atoms: _484  and  _485
REMARK  196  A    between atoms: _490  and  _492
REMARK  197  A    between atoms: _492  and  _493
REMARK  198  A    between atoms: _492  and  _495
REMARK  199  A    between atoms: _497  and  _499
REMARK  200  A    between atoms: _499  and  _500
REMARK  201  A    between atoms: _499  and  _502
REMARK  202  A    between atoms: _502  and  _503
REMARK  203  A    between atoms: _506  and  _508
REMARK  204  A    between atoms: _508  and  _509
REMARK  205  A    between atoms: _508  and  _511
REMARK  206  A    between atoms: _514  and  _516
REMARK  207  A    between atoms: _516  and  _517
REMARK  208  A    between atoms: _519  and  _521
REMARK  209  A    between atoms: _521  and  _522
REMARK  210  A    between atoms: _521  and  _524
REMARK  211  A    between atoms: _524  and  _525
REMARK  212  A    between atoms: _525  and  _526
REMARK  213  A    between atoms: _526  and  _527
REMARK  214  A    between atoms: _527  and  _528
REMARK  215  A    between atoms: _532  and  _534
REMARK  216  A    between atoms: _534  and  _535
REMARK  217  A    between atoms: _534  and  _537
REMARK  218  A    between atoms: _537  and  _538
REMARK  219  A    between atoms: _541  and  _543
REMARK  220  A    between atoms: _543  and  _544
REMARK  221  A    between atoms: _546  and  _548
REMARK  222  A    between atoms: _548  and  _549
REMARK  223  A    between atoms: _548  and  _551
REMARK  224  A    between atoms: _551  and  _552
REMARK  225  A    between atoms: _555  and  _557
REMARK  226  A    between atoms: _557  and  _558
REMARK  227  A    between atoms: _557  and  _560
REMARK  228  A    between atoms: _560  and  _561
REMARK  229  A    between atoms: _567  and  _569
REMARK  230  A    between atoms: _569  and  _570
REMARK  231  A    between atoms: _572  and  _574
REMARK  232  A    between atoms: _574  and  _575
REMARK  233  A    between atoms: _574  and  _577
REMARK  234  A    between atoms: _577  and  _578
REMARK  235  A    between atoms: _578  and  _579
REMARK  236  A    between atoms: _581  and  _583
REMARK  237  A    between atoms: _583  and  _584
REMARK  238  A    between atoms: _583  and  _586
REMARK  239  A    between atoms: _586  and  _587
REMARK  240  A    between atoms: _589  and  _591
REMARK  241  A    between atoms: _591  and  _592
REMARK  242  A    between atoms: _591  and  _594
REMARK  243  A    between atoms: _594  and  _595
REMARK  244  A    between atoms: _598  and  _600
REMARK  245  A    between atoms: _600  and  _601
REMARK  246  A    between atoms: _600  and  _603
REMARK  247  A    between atoms: _603  and  _604
REMARK  248  A    between atoms: _609  and  _610
REMARK                            x       y       z     vdW  Elec       q    Type
REMARK                         _______ _______ _______ _____ _____    ______ ____
ROOT
ATOM      1  C   ASP A   1      39.325 -37.123 -19.388  0.00  0.00    +0.239 C 
ATOM      2  O   ASP A   1      39.811 -36.488 -18.454  0.00  0.00    -0.274 OA
ATOM      3  N   PHE A   2      38.700 -38.318 -19.248  0.00  0.00    -0.298 N 
ATOM      4  H   PHE A   2      38.327 -38.759 -20.113  0.00  0.00    +0.150 HD
ENDROOT
BRANCH   1   5
ATOM      5  CA  ASP A   1      39.445 -36.578 -20.811  0.00  0.00    +0.156 C 
BRANCH   5   6
ATOM      6  N   ASP A   1      39.745 -37.694 -21.722  0.00  0.00    -0.238 NA
ATOM      7  H   ASP A   1      39.009 -37.962 -22.406  0.00  0.00    +0.142 HD
ENDBRANCH   5   6
BRANCH   5   8
ATOM      8  CB  ASP A   1      38.137 -35.880 -21.209  0.00  0.00    +0.140 C 
BRANCH   8   9
ATOM      9  CG  ASP A   1      38.143 -35.219 -22.578  0.00  0.00    +0.367 C 
ATOM     10  OD2 ASP A   1      39.184 -34.616 -22.951  0.00  0.00    -0.246 OA
ATOM     11  OD1 ASP A   1      37.103 -35.287 -23.271  0.00  0.00    -0.246 OA
ENDBRANCH   8   9
ENDBRANCH   5   8
ENDBRANCH   1   5
BRANCH   3  12
ATOM     12  CA  PHE A   2      38.502 -39.045 -17.994  0.00  0.00    +0.141 C 
BRANCH  12  13
ATOM     13  C   PHE A   2      39.856 -39.441 -17.420  0.00  0.00    +0.227 C 
ATOM     14  O   PHE A   2      40.077 -39.298 -16.210  0.00  0.00    -0.286 OA
ENDBRANCH  12  13
BRANCH  12  15
ATOM     15  CB  PHE A   2      37.636 -40.299 -18.248  0.00  0.00    +0.054 C 
BRANCH  15  16
ATOM     16  CG  PHE A   2      37.420 -41.209 -17.056  0.00  0.00    -0.020 A 
ATOM     17  CD2 PHE A   2      36.229 -41.178 -16.346  0.00  0.00    -0.004 A 
ATOM     18  CE2 PHE A   2      36.030 -42.019 -15.246  0.00  0.00    -0.000 A 
ATOM     19  CZ  PHE A   2      37.022 -42.892 -14.857  0.00  0.00    -0.000 A 
ATOM     20  CE1 PHE A   2      38.211 -42.936 -15.547  0.00  0.00    -0.000 A 
ATOM     21  CD1 PHE A   2      38.406 -42.107 -16.654  0.00  0.00    -0.004 A 
ENDBRANCH  15  16
ENDBRANCH  12  15
ENDBRANCH   3  12
TORSDOF 8
REMARK  Name = ../refined-set-2016/4pmm/4pmm_pocket.pdb
REMARK  248 active torsions:
REMARK  status: ('A' for Active; 'I' for Inactive)
REMARK    1  A    between atoms: _1  and  _3
REMARK    2  A    between atoms: _3  and  _4
REMARK    3  A    between atoms: _3  and  _6
REMARK    4  A    between atoms: _6  and  _7
REMARK    5  A    between atoms: _17  and  _19
REMARK    6  A    between atoms: _19  and  _20
REMARK    7  A    between atoms: _19  and  _22
REMARK    8  A    between atoms: _22  and  _23
REMARK    9  A    between atoms: _26  and  _28
REMARK   10  A    between atoms: _28  and  _29
REMARK   11  A    between atoms: _31  and  _33
REMARK   12  A    between atoms: _33  and  _34
REMARK   13  A    between atoms: _36  and  _38
REMARK   14  A    between atoms: _38  and  _39
REMARK   15  A    between atoms: _38  and  _41
REMARK   16  A    between atoms: _41  and  _42
REMARK   17  A    between atoms: _42  and  _43
REMARK   18  A    between atoms: _43  and  _44
REMARK   19  A    between atoms: _44  and  _45
REMARK   20  A    between atoms: _49  and  _51
REMARK   21  A    between atoms: _51  and  _52
REMARK   22  A    between atoms: _51  and  _54
REMARK   23  A    between atoms: _57  and  _59
REMARK   24  A    between atoms: _59  and  _60
REMARK   25  A    between atoms: _59  and  _62
REMARK   26  A    between atoms: _62  and  _63
REMARK   27  A    between atoms: _69  and  _71
REMARK   28  A    between atoms: _71  and  _72
REMARK   29  A    between atoms: _71  and  _74
REMARK   30  A    between atoms: _74  and  _75
REMARK   31  A    between atoms: _78  and  _80
REMARK   32  A    between atoms: _80  and  _81
REMARK   33  A    between atoms: _84  and  _86
REMARK   34  A    between atoms: _86  and  _87
REMARK   35  A    between atoms: _86  and  _89
REMARK   36  A    between atoms: _92  and  _94
REMARK   37  A    between atoms: _94  and  _95
REMARK   38  A    between atoms: _98  and  _100
REMARK   39  A    between atoms: _100  and  _101
REMARK   40  A    between atoms: _100  and  _103
REMARK   41  A    between atoms: _106  and  _108
REMARK   42  A    between atoms: _108  and  _109
REMARK   43  A    between atoms: _108  and  _111
REMARK   44  A    between atoms: _111  and  _112
REMARK   45  A    between atoms: _112  and  _113
REMARK   46  A    between atoms: _113  and  _114
REMARK   47  A    between atoms: _114  and  _115
REMARK   48  A    between atoms: _119  and  _121
REMARK   49  A    between atoms: _121  and  _122
REMARK   50  A    between atoms: _125  and  _127
REMARK   51  A    between atoms: _127  and  _128
REMARK   52  A    between atoms: _127  and  _130
REMARK   53  A    between atoms: _130  and  _131
REMARK   54  A    between atoms: _134  and  _136
REMARK   55  A    between atoms: _136  and  _137
REMARK   56  A    between atoms: _136  and  _139
REMARK   57  A    between atoms: _139  and  _140
REMARK   58  A    between atoms: _146  and  _148
REMARK   59  A    between atoms: _148  and  _149
REMARK   60  A    between atoms: _148  and  _151
REMARK   61  A    between atoms: _151  and  _152
REMARK   62  A    between atoms: _152  and  _153
REMARK   63  A    between atoms: _153  and  _154
REMARK   64  A    between atoms: _163  and  _165
REMARK   65  A    between atoms: _165  and  _166
REMARK   66  A    between atoms: _165  and  _168
REMARK   67  A    between atoms: _168  and  _169
REMARK   68  A    between atoms: _169  and  _170
REMARK   69  A    between atoms: _173  and  _175
REMARK   70  A    between atoms: _175  and  _176
REMARK   71  A    between atoms: _179  and  _181
REMARK   72  A    between atoms: _181  and  _182
REMARK   73  A    between atoms: _181  and  _184
REMARK   74  A    between atoms: _184  and  _185
REMARK   75  A    between atoms: _188  and  _190
REMARK   76  A    between atoms: _190  and  _191
REMARK   77  A    between atoms: _190  and  _193
REMARK   78  A    between atoms: _193  and  _194
REMARK   79  A    between atoms: _197  and  _199
REMARK   80  A    between atoms: _199  and  _200
REMARK   81  A    between atoms: _199  and  _202
REMARK   82  A    between atoms: _202  and  _203
REMARK   83  A    between atoms: _206  and  _208
REMARK   84  A    between atoms: _208  and  _209
REMARK   85  A    between atoms: _208  and  _211
REMARK   86  A    between atoms: _211  and  _212
REMARK   87  A    between atoms: _217  and  _219
REMARK   88  A    between atoms: _219  and  _220
REMARK   89  A    between atoms: _219  and  _222
REMARK   90  A    between atoms: _222  and  _223
REMARK   91  A    between atoms: _226  and  _228
REMARK   92  A    between atoms: _228  and  _229
REMARK   93  A    between atoms: _228  and  _231
REMARK   94  A    between atoms: _234  and  _236
REMARK   95  A    between atoms: _236  and  _237
REMARK   96  A    between atoms: _236  and  _239
REMARK   97  A    between atoms: _239  and  _240
REMARK   98  A    between atoms: _240  and  _241
REMARK   99  A    between atoms: _241  and  _242
REMARK  100  A    between atoms: _251  and  _253
REMARK  101  A    between atoms: _253  and  _254
REMARK  102  A    between atoms: _253  and  _256
REMARK  103  A    between atoms: _256  and  _257
REMARK  104  A    between atoms: _263  and  _265
REMARK  105  A    between atoms: _265  and  _266
REMARK  106  A    between atoms: _265  and  _268
REMARK  107  A    between atoms: _268  and  _269
REMARK  108  A    between atoms: _269  and  _270
REMARK  109  A    between atoms: _272  and  _274
REMARK  110  A    between atoms: _274  and  _275
REMARK  111  A    between atoms: _274  and  _277
REMARK  112  A    between atoms: _280  and  _282
REMARK  113  A    between atoms: _282  and  _283
REMARK  114  A    between atoms: _282  and  _285
REMARK  115  A    between atoms: _285  and  _286
REMARK  116  A    between atoms: _292  and  _294
REMARK  117  A    between atoms: _294  and  _295
REMARK  118  A    between atoms: _294  and  _297
REMARK  119  A    between atoms: _297  and  _298
REMARK  120  A    between atoms: _298  and  _299
REMARK  121  A    between atoms: _302  and  _304
REMARK  122  A    between atoms: _304  and  _305
REMARK  123  A    between atoms: _304  and  _307
REMARK  124  A    between atoms: _307  and  _308
REMARK  125  A    between atoms: _313  and  _314
REMARK  126  A    between atoms: _316  and  _318
REMARK  127  A    between atoms: _318  and  _319
REMARK  128  A    between atoms: _318  and  _321
REMARK  129  A    between atoms: _321  and  _322
REMARK  130  A    between atoms: _322  and  _323
REMARK  131  A    between atoms: _325  and  _327
REMARK  132  A    between atoms: _327  and  _328
REMARK  133  A    between atoms: _327  and  _330
REMARK  134  A    between atoms: _330  and  _331
REMARK  135  A    between atoms: _331  and  _332
REMARK  136  A    between atoms: _332  and  _333
REMARK  137  A    between atoms: _342  and  _344
REMARK  138  A    between atoms: _344  and  _345
REMARK  139  A    between atoms: _344  and  _347
REMARK  140  A    between atoms: _347  and  _348
REMARK  141  A    between atoms: _353  and  _355
REMARK  142  A    between atoms: _355  and  _356
REMARK  143  A    between atoms: _358  and  _360
REMARK  144  A    between atoms: _360  and  _361
REMARK  145  A    between atoms: _360  and  _363
REMARK  146  A    between atoms: _363  and  _364
REMARK  147  A    between atoms: _367  and  _369
REMARK  148  A    between atoms: _369  and  _370
REMARK  149  A    between atoms: _369  and  _372
REMARK  150  A    between atoms: _372  and  _373
REMARK  151  A    between atoms: _376  and  _378
REMARK  152  A    between atoms: _378  and  _379
REMARK  153  A    between atoms: _381  and  _383
REMARK  154  A    between atoms: _383  and  _384
REMARK  155  A    between atoms: _383  and  _386
REMARK  156  A    between atoms: _386  and  _387
REMARK  157  A    between atoms: _387  and  _388
REMARK  158  A    between atoms: _390  and  _392
REMARK  159  A    between atoms: _392  and  _393
REMARK  160  A    between atoms: _392  and  _395
REMARK  161  A    between atoms: _395  and  _396
REMARK  162  A    between atoms: _401  and  _402
REMARK  163  A    between atoms: _404  and  _406
REMARK  164  A    between atoms: _406  and  _407
REMARK  165  A    between atoms: _406  and  _409
REMARK  166  A    between atoms: _409  and  _410
REMARK  167  A    between atoms: _413  and  _415
REMARK  168  A    between atoms: _415  and  _416
REMARK  169  A    between atoms: _415  and  _418
REMARK  170  A    between atoms: _418  and  _419
REMARK  171  A    between atoms: _425  and  _427
REMARK  172  A    between atoms: _427  and  _428
REMARK  173  A    between atoms: _427  and  _430
REMARK  174  A    between atoms: _433  and  _435
REMARK  175  A    between atoms: _435  and  _436
REMARK  176  A    between atoms: _435  and  _438
REMARK  177  A    between atoms: _438  and  _439
REMARK  178  A    between atoms: _444  and  _446
REMARK  179  A    between atoms: _446  and  _447
REMARK  180  A    between atoms: _446  and  _449
REMARK  181  A    between atoms: _449  and  _450
REMARK  182  A    between atoms: _453  and  _455
REMARK  183  A    between atoms: _455  and  _456
REMARK  184  A    between atoms: _455  and  _458
REMARK  185  A    between atoms: _458  and  _459
REMARK  186  A    between atoms: _462  and  _464
REMARK  187  A    between atoms: _464  and  _465
REMARK  188  A    between atoms: _464  and  _467
REMARK  189  A    between atoms: _467  and  _468
REMARK  190  A    between atoms: _468  and  _469
REMARK  191  A    between atoms: _469  and  _470
REMARK  192  A    between atoms: _479  and  _481
REMARK  193  A    between atoms: _481  and  _482
REMARK  194  A    between atoms: _481  and  _484
REMARK  195  A    between atoms: _484  and  _485
REMARK  196  A    between atoms: _490  and  _492
REMARK  197  A    between atoms: _492  and  _493
REMARK  198  A    between atoms: _492  and  _495
REMARK  199  A    between atoms: _497  and  _499
REMARK  200  A    between atoms: _499  and  _500
REMARK  201  A    between atoms: _499  and  _502
REMARK  202  A    between atoms: _502  and  _503
REMARK  203  A    between atoms: _506  and  _508
REMARK  204  A    between atoms: _508  and  _509
REMARK  205  A    between atoms: _508  and  _511
REMARK  206  A    between atoms: _514  and  _516
REMARK  207  A    between atoms: _516  and  _517
REMARK  208  A    between atoms: _519  and  _521
REMARK  209  A    between atoms: _521  and  _522
REMARK  210  A    between atoms: _521  and  _524
REMARK  211  A    between atoms: _524  and  _525
REMARK  212  A    between atoms: _525  and  _526
REMARK  213  A    between atoms: _526  and  _527
REMARK  214  A    between atoms: _527  and  _528
REMARK  215  A    between atoms: _532  and  _534
REMARK  216  A    between atoms: _534  and  _535
REMARK  217  A    between atoms: _534  and  _537
REMARK  218  A    between atoms: _537  and  _538
REMARK  219  A    between atoms: _541  and  _543
REMARK  220  A    between atoms: _543  and  _544
REMARK  221  A    between atoms: _546  and  _548
REMARK  222  A    between atoms: _548  and  _549
REMARK  223  A    between atoms: _548  and  _551
REMARK  224  A    between atoms: _551  and  _552
REMARK  225  A    between atoms: _555  and  _557
REMARK  226  A    between atoms: _557  and  _558
REMARK  227  A    between atoms: _557  and  _560
REMARK  228  A    between atoms: _560  and  _561
REMARK  229  A    between atoms: _567  and  _569
REMARK  230  A    between atoms: _569  and  _570
REMARK  231  A    between atoms: _572  and  _574
REMARK  232  A    between atoms: _574  and  _575
REMARK  233  A    between atoms: _574  and  _577
REMARK  234  A    between atoms: _577  and  _578
REMARK  235  A    between atoms: _578  and  _579
REMARK  236  A    between atoms: _581  and  _583
REMARK  237  A    between atoms: _583  and  _584
REMARK  238  A    between atoms: _583  and  _586
REMARK  239  A    between atoms: _586  and  _587
REMARK  240  A    between atoms: _589  and  _591
REMARK  241  A    between atoms: _591  and  _592
REMARK  242  A    between atoms: _591  and  _594
REMARK  243  A    between atoms: _594  and  _595
REMARK  244  A    between atoms: _598  and  _600
REMARK  245  A    between atoms: _600  and  _601
REMARK  246  A    between atoms: _600  and  _603
REMARK  247  A    between atoms: _603  and  _604
REMARK  248  A    between atoms: _609  and  _610
REMARK                            x       y       z     vdW  Elec       q    Type
REMARK                         _______ _______ _______ _____ _____    ______ ____
ROOT
ATOM      1  C   ARG A   1      43.142 -36.353 -16.562  0.00  0.00    +0.238 C 
ATOM      2  O   ARG A   1      43.977 -36.007 -15.721  0.00  0.00    -0.274 OA
ATOM      3  N   GLU A   2      41.815 -36.334 -16.325  0.00  0.00    -0.297 N 
ATOM      4  H   GLU A   2      41.173 -36.656 -17.077  0.00  0.00    +0.150 HD
ENDROOT
BRANCH   1   5
ATOM      5  CA  ARG A   1      43.608 -36.878 -17.951  0.00  0.00    +0.145 C 
BRANCH   5   6
ATOM      6  N   ARG A   1      42.878 -38.113 -18.268  0.00  0.00    -0.238 NA
ATOM      7  H   ARG A   1      42.291 -38.131 -19.126  0.00  0.00    +0.142 HD
ENDBRANCH   5   6
BRANCH   5   8
ATOM      8  CB  ARG A   1      43.355 -35.816 -19.044  0.00  0.00    +0.030 C 
BRANCH   8   9
ATOM      9  CG  ARG A   1      44.379 -34.672 -19.068  0.00  0.00    +0.045 C 
BRANCH   9  10
ATOM     10  CD  ARG A   1      43.925 -33.455 -19.884  0.00  0.00    +0.174 C 
BRANCH  10  11
ATOM     11  NE  ARG A   1      43.760 -33.747 -21.313  0.00  0.00    -0.265 N 
ATOM     12  HE  ARG A   1      44.617 -33.942 -21.869  0.00  0.00    +0.259 HD
ATOM     13  CZ  ARG A   1      42.589 -33.779 -21.947  0.00  0.00    +0.342 C 
ATOM     14  NH2 ARG A   1      41.462 -33.534 -21.289  0.00  0.00    -0.292 N 
ATOM     15 HH21 ARG A   1      41.490 -33.316 -20.273  0.00  0.00    +0.255 HD
ATOM     16 HH22 ARG A   1      40.551 -33.561 -21.790  0.00  0.00    +0.255 HD
ATOM     17  NH1 ARG A   1      42.537 -34.052 -23.244  0.00  0.00    -0.292 N 
ATOM     18 HH11 ARG A   1      41.620 -34.076 -23.734  0.00  0.00    +0.255 HD
ATOM     19 HH12 ARG A   1      43.413 -34.242 -23.771  0.00  0.00    +0.255 HD
ENDBRANCH  10  11
ENDBRANCH   9  10
ENDBRANCH   8   9
ENDBRANCH   5   8
ENDBRANCH   1   5
BRANCH   3  20
ATOM     20  CA  GLU A   2      41.231 -35.879 -15.053  0.00  0.00    +0.149 C 
BRANCH  20  21
ATOM     21  C   GLU A   2      41.663 -36.756 -13.864  0.00  0.00    +0.241 C 
ATOM     22  O   GLU A   2      42.083 -36.227 -12.834  0.00  0.00    -0.273 OA
ATOM     23  N   ALA A   3      41.579 -38.086 -14.014  0.00  0.00    -0.298 N 
ATOM     24  H   ALA A   3      41.223 -38.465 -14.914  0.00  0.00    +0.150 HD
BRANCH  23  25
ATOM     25  CA  ALA A   3      41.968 -39.023 -12.963  0.00  0.00    +0.137 C 
ATOM     26  CB  ALA A   3      41.697 -40.444 -13.407  0.00  0.00    +0.030 C 
BRANCH  25  27
ATOM     27  C   ALA A   3      43.429 -38.842 -12.551  0.00  0.00    +0.227 C 
ATOM     28  O   ALA A   3      43.727 -38.833 -11.357  0.00  0.00    -0.286 OA
ENDBRANCH  25  27
ENDBRANCH  23  25
ENDBRANCH  20  21
BRANCH  20  29
ATOM     29  CB  GLU A   2      39.703 -35.823 -15.151  0.00  0.00    +0.041 C 
BRANCH  29  30
ATOM     30  CG  GLU A   2      39.081 -34.907 -14.103  0.00  0.00    +0.116 C 
BRANCH  30  31
ATOM     31  CD  GLU A   2      37.568 -34.886 -14.078  0.00  0.00    +0.365 C 
ATOM     32  OE2 GLU A   2      37.003 -34.424 -13.064  0.00  0.00    -0.246 OA
ATOM     33  OE1 GLU A   2      36.942 -35.320 -15.070  0.00  0.00    -0.246 OA
ENDBRANCH  30  31
ENDBRANCH  29  30
ENDBRANCH  20  29
ENDBRANCH   3  20
TORSDOF 13
REMARK  Name = ../refined-set-2016/4pmm/4pmm_pocket.pdb
REMARK  248 active torsions:
REMARK  status: ('A' for Active; 'I' for Inactive)
REMARK    1  A    between atoms: _1  and  _3
REMARK    2  A    between atoms: _3  and  _4
REMARK    3  A    between atoms: _3  and  _6
REMARK    4  A    between atoms: _6  and  _7
REMARK    5  A    between atoms: _17  and  _19
REMARK    6  A    between atoms: _19  and  _20
REMARK    7  A    between atoms: _19  and  _22
REMARK    8  A    between atoms: _22  and  _23
REMARK    9  A    between atoms: _26  and  _28
REMARK   10  A    between atoms: _28  and  _29
REMARK   11  A    between atoms: _31  and  _33
REMARK   12  A    between atoms: _33  and  _34
REMARK   13  A    between atoms: _36  and  _38
REMARK   14  A    between atoms: _38  and  _39
REMARK   15  A    between atoms: _38  and  _41
REMARK   16  A    between atoms: _41  and  _42
REMARK   17  A    between atoms: _42  and  _43
REMARK   18  A    between atoms: _43  and  _44
REMARK   19  A    between atoms: _44  and  _45
REMARK   20  A    between atoms: _49  and  _51
REMARK   21  A    between atoms: _51  and  _52
REMARK   22  A    between atoms: _51  and  _54
REMARK   23  A    between atoms: _57  and  _59
REMARK   24  A    between atoms: _59  and  _60
REMARK   25  A    between atoms: _59  and  _62
REMARK   26  A    between atoms: _62  and  _63
REMARK   27  A    between atoms: _69  and  _71
REMARK   28  A    between atoms: _71  and  _72
REMARK   29  A    between atoms: _71  and  _74
REMARK   30  A    between atoms: _74  and  _75
REMARK   31  A    between atoms: _78  and  _80
REMARK   32  A    between atoms: _80  and  _81
REMARK   33  A    between atoms: _84  and  _86
REMARK   34  A    between atoms: _86  and  _87
REMARK   35  A    between atoms: _86  and  _89
REMARK   36  A    between atoms: _92  and  _94
REMARK   37  A    between atoms: _94  and  _95
REMARK   38  A    between atoms: _98  and  _100
REMARK   39  A    between atoms: _100  and  _101
REMARK   40  A    between atoms: _100  and  _103
REMARK   41  A    between atoms: _106  and  _108
REMARK   42  A    between atoms: _108  and  _109
REMARK   43  A    between atoms: _108  and  _111
REMARK   44  A    between atoms: _111  and  _112
REMARK   45  A    between atoms: _112  and  _113
REMARK   46  A    between atoms: _113  and  _114
REMARK   47  A    between atoms: _114  and  _115
REMARK   48  A    between atoms: _119  and  _121
REMARK   49  A    between atoms: _121  and  _122
REMARK   50  A    between atoms: _125  and  _127
REMARK   51  A    between atoms: _127  and  _128
REMARK   52  A    between atoms: _127  and  _130
REMARK   53  A    between atoms: _130  and  _131
REMARK   54  A    between atoms: _134  and  _136
REMARK   55  A    between atoms: _136  and  _137
REMARK   56  A    between atoms: _136  and  _139
REMARK   57  A    between atoms: _139  and  _140
REMARK   58  A    between atoms: _146  and  _148
REMARK   59  A    between atoms: _148  and  _149
REMARK   60  A    between atoms: _148  and  _151
REMARK   61  A    between atoms: _151  and  _152
REMARK   62  A    between atoms: _152  and  _153
REMARK   63  A    between atoms: _153  and  _154
REMARK   64  A    between atoms: _163  and  _165
REMARK   65  A    between atoms: _165  and  _166
REMARK   66  A    between atoms: _165  and  _168
REMARK   67  A    between atoms: _168  and  _169
REMARK   68  A    between atoms: _169  and  _170
REMARK   69  A    between atoms: _173  and  _175
REMARK   70  A    between atoms: _175  and  _176
REMARK   71  A    between atoms: _179  and  _181
REMARK   72  A    between atoms: _181  and  _182
REMARK   73  A    between atoms: _181  and  _184
REMARK   74  A    between atoms: _184  and  _185
REMARK   75  A    between atoms: _188  and  _190
REMARK   76  A    between atoms: _190  and  _191
REMARK   77  A    between atoms: _190  and  _193
REMARK   78  A    between atoms: _193  and  _194
REMARK   79  A    between atoms: _197  and  _199
REMARK   80  A    between atoms: _199  and  _200
REMARK   81  A    between atoms: _199  and  _202
REMARK   82  A    between atoms: _202  and  _203
REMARK   83  A    between atoms: _206  and  _208
REMARK   84  A    between atoms: _208  and  _209
REMARK   85  A    between atoms: _208  and  _211
REMARK   86  A    between atoms: _211  and  _212
REMARK   87  A    between atoms: _217  and  _219
REMARK   88  A    between atoms: _219  and  _220
REMARK   89  A    between atoms: _219  and  _222
REMARK   90  A    between atoms: _222  and  _223
REMARK   91  A    between atoms: _226  and  _228
REMARK   92  A    between atoms: _228  and  _229
REMARK   93  A    between atoms: _228  and  _231
REMARK   94  A    between atoms: _234  and  _236
REMARK   95  A    between atoms: _236  and  _237
REMARK   96  A    between atoms: _236  and  _239
REMARK   97  A    between atoms: _239  and  _240
REMARK   98  A    between atoms: _240  and  _241
REMARK   99  A    between atoms: _241  and  _242
REMARK  100  A    between atoms: _251  and  _253
REMARK  101  A    between atoms: _253  and  _254
REMARK  102  A    between atoms: _253  and  _256
REMARK  103  A    between atoms: _256  and  _257
REMARK  104  A    between atoms: _263  and  _265
REMARK  105  A    between atoms: _265  and  _266
REMARK  106  A    between atoms: _265  and  _268
REMARK  107  A    between atoms: _268  and  _269
REMARK  108  A    between atoms: _269  and  _270
REMARK  109  A    between atoms: _272  and  _274
REMARK  110  A    between atoms: _274  and  _275
REMARK  111  A    between atoms: _274  and  _277
REMARK  112  A    between atoms: _280  and  _282
REMARK  113  A    between atoms: _282  and  _283
REMARK  114  A    between atoms: _282  and  _285
REMARK  115  A    between atoms: _285  and  _286
REMARK  116  A    between atoms: _292  and  _294
REMARK  117  A    between atoms: _294  and  _295
REMARK  118  A    between atoms: _294  and  _297
REMARK  119  A    between atoms: _297  and  _298
REMARK  120  A    between atoms: _298  and  _299
REMARK  121  A    between atoms: _302  and  _304
REMARK  122  A    between atoms: _304  and  _305
REMARK  123  A    between atoms: _304  and  _307
REMARK  124  A    between atoms: _307  and  _308
REMARK  125  A    between atoms: _313  and  _314
REMARK  126  A    between atoms: _316  and  _318
REMARK  127  A    between atoms: _318  and  _319
REMARK  128  A    between atoms: _318  and  _321
REMARK  129  A    between atoms: _321  and  _322
REMARK  130  A    between atoms: _322  and  _323
REMARK  131  A    between atoms: _325  and  _327
REMARK  132  A    between atoms: _327  and  _328
REMARK  133  A    between atoms: _327  and  _330
REMARK  134  A    between atoms: _330  and  _331
REMARK  135  A    between atoms: _331  and  _332
REMARK  136  A    between atoms: _332  and  _333
REMARK  137  A    between atoms: _342  and  _344
REMARK  138  A    between atoms: _344  and  _345
REMARK  139  A    between atoms: _344  and  _347
REMARK  140  A    between atoms: _347  and  _348
REMARK  141  A    between atoms: _353  and  _355
REMARK  142  A    between atoms: _355  and  _356
REMARK  143  A    between atoms: _358  and  _360
REMARK  144  A    between atoms: _360  and  _361
REMARK  145  A    between atoms: _360  and  _363
REMARK  146  A    between atoms: _363  and  _364
REMARK  147  A    between atoms: _367  and  _369
REMARK  148  A    between atoms: _369  and  _370
REMARK  149  A    between atoms: _369  and  _372
REMARK  150  A    between atoms: _372  and  _373
REMARK  151  A    between atoms: _376  and  _378
REMARK  152  A    between atoms: _378  and  _379
REMARK  153  A    between atoms: _381  and  _383
REMARK  154  A    between atoms: _383  and  _384
REMARK  155  A    between atoms: _383  and  _386
REMARK  156  A    between atoms: _386  and  _387
REMARK  157  A    between atoms: _387  and  _388
REMARK  158  A    between atoms: _390  and  _392
REMARK  159  A    between atoms: _392  and  _393
REMARK  160  A    between atoms: _392  and  _395
REMARK  161  A    between atoms: _395  and  _396
REMARK  162  A    between atoms: _401  and  _402
REMARK  163  A    between atoms: _404  and  _406
REMARK  164  A    between atoms: _406  and  _407
REMARK  165  A    between atoms: _406  and  _409
REMARK  166  A    between atoms: _409  and  _410
REMARK  167  A    between atoms: _413  and  _415
REMARK  168  A    between atoms: _415  and  _416
REMARK  169  A    between atoms: _415  and  _418
REMARK  170  A    between atoms: _418  and  _419
REMARK  171  A    between atoms: _425  and  _427
REMARK  172  A    between atoms: _427  and  _428
REMARK  173  A    between atoms: _427  and  _430
REMARK  174  A    between atoms: _433  and  _435
REMARK  175  A    between atoms: _435  and  _436
REMARK  176  A    between atoms: _435  and  _438
REMARK  177  A    between atoms: _438  and  _439
REMARK  178  A    between atoms: _444  and  _446
REMARK  179  A    between atoms: _446  and  _447
REMARK  180  A    between atoms: _446  and  _449
REMARK  181  A    between atoms: _449  and  _450
REMARK  182  A    between atoms: _453  and  _455
REMARK  183  A    between atoms: _455  and  _456
REMARK  184  A    between atoms: _455  and  _458
REMARK  185  A    between atoms: _458  and  _459
REMARK  186  A    between atoms: _462  and  _464
REMARK  187  A    between atoms: _464  and  _465
REMARK  188  A    between atoms: _464  and  _467
REMARK  189  A    between atoms: _467  and  _468
REMARK  190  A    between atoms: _468  and  _469
REMARK  191  A    between atoms: _469  and  _470
REMARK  192  A    between atoms: _479  and  _481
REMARK  193  A    between atoms: _481  and  _482
REMARK  194  A    between atoms: _481  and  _484
REMARK  195  A    between atoms: _484  and  _485
REMARK  196  A    between atoms: _490  and  _492
REMARK  197  A    between atoms: _492  and  _493
REMARK  198  A    between atoms: _492  and  _495
REMARK  199  A    between atoms: _497  and  _499
REMARK  200  A    between atoms: _499  and  _500
REMARK  201  A    between atoms: _499  and  _502
REMARK  202  A    between atoms: _502  and  _503
REMARK  203  A    between atoms: _506  and  _508
REMARK  204  A    between atoms: _508  and  _509
REMARK  205  A    between atoms: _508  and  _511
REMARK  206  A    between atoms: _514  and  _516
REMARK  207  A    between atoms: _516  and  _517
REMARK  208  A    between atoms: _519  and  _521
REMARK  209  A    between atoms: _521  and  _522
REMARK  210  A    between atoms: _521  and  _524
REMARK  211  A    between atoms: _524  and  _525
REMARK  212  A    between atoms: _525  and  _526
REMARK  213  A    between atoms: _526  and  _527
REMARK  214  A    between atoms: _527  and  _528
REMARK  215  A    between atoms: _532  and  _534
REMARK  216  A    between atoms: _534  and  _535
REMARK  217  A    between atoms: _534  and  _537
REMARK  218  A    between atoms: _537  and  _538
REMARK  219  A    between atoms: _541  and  _543
REMARK  220  A    between atoms: _543  and  _544
REMARK  221  A    between atoms: _546  and  _548
REMARK  222  A    between atoms: _548  and  _549
REMARK  223  A    between atoms: _548  and  _551
REMARK  224  A    between atoms: _551  and  _552
REMARK  225  A    between atoms: _555  and  _557
REMARK  226  A    between atoms: _557  and  _558
REMARK  227  A    between atoms: _557  and  _560
REMARK  228  A    between atoms: _560  and  _561
REMARK  229  A    between atoms: _567  and  _569
REMARK  230  A    between atoms: _569  and  _570
REMARK  231  A    between atoms: _572  and  _574
REMARK  232  A    between atoms: _574  and  _575
REMARK  233  A    between atoms: _574  and  _577
REMARK  234  A    between atoms: _577  and  _578
REMARK  235  A    between atoms: _578  and  _579
REMARK  236  A    between atoms: _581  and  _583
REMARK  237  A    between atoms: _583  and  _584
REMARK  238  A    between atoms: _583  and  _586
REMARK  239  A    between atoms: _586  and  _587
REMARK  240  A    between atoms: _589  and  _591
REMARK  241  A    between atoms: _591  and  _592
REMARK  242  A    between atoms: _591  and  _594
REMARK  243  A    between atoms: _594  and  _595
REMARK  244  A    between atoms: _598  and  _600
REMARK  245  A    between atoms: _600  and  _601
REMARK  246  A    between atoms: _600  and  _603
REMARK  247  A    between atoms: _603  and  _604
REMARK  248  A    between atoms: _609  and  _610
REMARK                            x       y       z     vdW  Elec       q    Type
REMARK                         _______ _______ _______ _____ _____    ______ ____
ROOT
ATOM      1  C   LEU A   1      44.888 -34.745 -10.991  0.00  0.00    +0.238 C 
ATOM      2  O   LEU A   1      45.548 -34.197 -10.107  0.00  0.00    -0.274 OA
ATOM      3  N   LEU A   2      43.749 -35.400 -10.740  0.00  0.00    -0.298 N 
ATOM      4  H   LEU A   2      43.249 -35.856 -11.530  0.00  0.00    +0.150 HD
ENDROOT
BRANCH   1   5
ATOM      5  CA  LEU A   1      45.374 -34.710 -12.457  0.00  0.00    +0.145 C 
BRANCH   5   6
ATOM      6  N   LEU A   1      45.301 -36.038 -13.066  0.00  0.00    -0.238 NA
ATOM      7  H   LEU A   1      44.685 -36.167 -13.894  0.00  0.00    +0.142 HD
ENDBRANCH   5   6
BRANCH   5   8
ATOM      8  CB  LEU A   1      44.532 -33.728 -13.279  0.00  0.00    +0.026 C 
BRANCH   8   9
ATOM      9  CG  LEU A   1      44.491 -32.285 -12.785  0.00  0.00    +0.002 C 
ATOM     10  CD2 LEU A   1      45.822 -31.555 -13.048  0.00  0.00    +0.000 C 
ATOM     11  CD1 LEU A   1      43.358 -31.551 -13.420  0.00  0.00    +0.000 C 
ENDBRANCH   8   9
ENDBRANCH   5   8
ENDBRANCH   1   5
BRANCH   3  12
ATOM     12  CA  LEU A   2      43.179 -35.498  -9.391  0.00  0.00    +0.137 C 
BRANCH  12  13
ATOM     13  C   LEU A   2      43.991 -36.387  -8.449  0.00  0.00    +0.227 C 
ATOM     14  O   LEU A   2      43.887 -36.239  -7.223  0.00  0.00    -0.286 OA
ENDBRANCH  12  13
BRANCH  12  15
ATOM     15  CB  LEU A   2      41.715 -35.923  -9.447  0.00  0.00    +0.028 C 
BRANCH  15  16
ATOM     16  CG  LEU A   2      40.742 -34.819  -9.849  0.00  0.00    +0.002 C 
ATOM     17  CD2 LEU A   2      40.374 -33.921  -8.652  0.00  0.00    +0.000 C 
ATOM     18  CD1 LEU A   2      39.517 -35.405 -10.468  0.00  0.00    +0.000 C 
ENDBRANCH  15  16
ENDBRANCH  12  15
ENDBRANCH   3  12
TORSDOF 8
REMARK  Name = ../refined-set-2016/4pmm/4pmm_pocket.pdb
REMARK  248 active torsions:
REMARK  status: ('A' for Active; 'I' for Inactive)
REMARK    1  A    between atoms: _1  and  _3
REMARK    2  A    between atoms: _3  and  _4
REMARK    3  A    between atoms: _3  and  _6
REMARK    4  A    between atoms: _6  and  _7
REMARK    5  A    between atoms: _17  and  _19
REMARK    6  A    between atoms: _19  and  _20
REMARK    7  A    between atoms: _19  and  _22
REMARK    8  A    between atoms: _22  and  _23
REMARK    9  A    between atoms: _26  and  _28
REMARK   10  A    between atoms: _28  and  _29
REMARK   11  A    between atoms: _31  and  _33
REMARK   12  A    between atoms: _33  and  _34
REMARK   13  A    between atoms: _36  and  _38
REMARK   14  A    between atoms: _38  and  _39
REMARK   15  A    between atoms: _38  and  _41
REMARK   16  A    between atoms: _41  and  _42
REMARK   17  A    between atoms: _42  and  _43
REMARK   18  A    between atoms: _43  and  _44
REMARK   19  A    between atoms: _44  and  _45
REMARK   20  A    between atoms: _49  and  _51
REMARK   21  A    between atoms: _51  and  _52
REMARK   22  A    between atoms: _51  and  _54
REMARK   23  A    between atoms: _57  and  _59
REMARK   24  A    between atoms: _59  and  _60
REMARK   25  A    between atoms: _59  and  _62
REMARK   26  A    between atoms: _62  and  _63
REMARK   27  A    between atoms: _69  and  _71
REMARK   28  A    between atoms: _71  and  _72
REMARK   29  A    between atoms: _71  and  _74
REMARK   30  A    between atoms: _74  and  _75
REMARK   31  A    between atoms: _78  and  _80
REMARK   32  A    between atoms: _80  and  _81
REMARK   33  A    between atoms: _84  and  _86
REMARK   34  A    between atoms: _86  and  _87
REMARK   35  A    between atoms: _86  and  _89
REMARK   36  A    between atoms: _92  and  _94
REMARK   37  A    between atoms: _94  and  _95
REMARK   38  A    between atoms: _98  and  _100
REMARK   39  A    between atoms: _100  and  _101
REMARK   40  A    between atoms: _100  and  _103
REMARK   41  A    between atoms: _106  and  _108
REMARK   42  A    between atoms: _108  and  _109
REMARK   43  A    between atoms: _108  and  _111
REMARK   44  A    between atoms: _111  and  _112
REMARK   45  A    between atoms: _112  and  _113
REMARK   46  A    between atoms: _113  and  _114
REMARK   47  A    between atoms: _114  and  _115
REMARK   48  A    between atoms: _119  and  _121
REMARK   49  A    between atoms: _121  and  _122
REMARK   50  A    between atoms: _125  and  _127
REMARK   51  A    between atoms: _127  and  _128
REMARK   52  A    between atoms: _127  and  _130
REMARK   53  A    between atoms: _130  and  _131
REMARK   54  A    between atoms: _134  and  _136
REMARK   55  A    between atoms: _136  and  _137
REMARK   56  A    between atoms: _136  and  _139
REMARK   57  A    between atoms: _139  and  _140
REMARK   58  A    between atoms: _146  and  _148
REMARK   59  A    between atoms: _148  and  _149
REMARK   60  A    between atoms: _148  and  _151
REMARK   61  A    between atoms: _151  and  _152
REMARK   62  A    between atoms: _152  and  _153
REMARK   63  A    between atoms: _153  and  _154
REMARK   64  A    between atoms: _163  and  _165
REMARK   65  A    between atoms: _165  and  _166
REMARK   66  A    between atoms: _165  and  _168
REMARK   67  A    between atoms: _168  and  _169
REMARK   68  A    between atoms: _169  and  _170
REMARK   69  A    between atoms: _173  and  _175
REMARK   70  A    between atoms: _175  and  _176
REMARK   71  A    between atoms: _179  and  _181
REMARK   72  A    between atoms: _181  and  _182
REMARK   73  A    between atoms: _181  and  _184
REMARK   74  A    between atoms: _184  and  _185
REMARK   75  A    between atoms: _188  and  _190
REMARK   76  A    between atoms: _190  and  _191
REMARK   77  A    between atoms: _190  and  _193
REMARK   78  A    between atoms: _193  and  _194
REMARK   79  A    between atoms: _197  and  _199
REMARK   80  A    between atoms: _199  and  _200
REMARK   81  A    between atoms: _199  and  _202
REMARK   82  A    between atoms: _202  and  _203
REMARK   83  A    between atoms: _206  and  _208
REMARK   84  A    between atoms: _208  and  _209
REMARK   85  A    between atoms: _208  and  _211
REMARK   86  A    between atoms: _211  and  _212
REMARK   87  A    between atoms: _217  and  _219
REMARK   88  A    between atoms: _219  and  _220
REMARK   89  A    between atoms: _219  and  _222
REMARK   90  A    between atoms: _222  and  _223
REMARK   91  A    between atoms: _226  and  _228
REMARK   92  A    between atoms: _228  and  _229
REMARK   93  A    between atoms: _228  and  _231
REMARK   94  A    between atoms: _234  and  _236
REMARK   95  A    between atoms: _236  and  _237
REMARK   96  A    between atoms: _236  and  _239
REMARK   97  A    between atoms: _239  and  _240
REMARK   98  A    between atoms: _240  and  _241
REMARK   99  A    between atoms: _241  and  _242
REMARK  100  A    between atoms: _251  and  _253
REMARK  101  A    between atoms: _253  and  _254
REMARK  102  A    between atoms: _253  and  _256
REMARK  103  A    between atoms: _256  and  _257
REMARK  104  A    between atoms: _263  and  _265
REMARK  105  A    between atoms: _265  and  _266
REMARK  106  A    between atoms: _265  and  _268
REMARK  107  A    between atoms: _268  and  _269
REMARK  108  A    between atoms: _269  and  _270
REMARK  109  A    between atoms: _272  and  _274
REMARK  110  A    between atoms: _274  and  _275
REMARK  111  A    between atoms: _274  and  _277
REMARK  112  A    between atoms: _280  and  _282
REMARK  113  A    between atoms: _282  and  _283
REMARK  114  A    between atoms: _282  and  _285
REMARK  115  A    between atoms: _285  and  _286
REMARK  116  A    between atoms: _292  and  _294
REMARK  117  A    between atoms: _294  and  _295
REMARK  118  A    between atoms: _294  and  _297
REMARK  119  A    between atoms: _297  and  _298
REMARK  120  A    between atoms: _298  and  _299
REMARK  121  A    between atoms: _302  and  _304
REMARK  122  A    between atoms: _304  and  _305
REMARK  123  A    between atoms: _304  and  _307
REMARK  124  A    between atoms: _307  and  _308
REMARK  125  A    between atoms: _313  and  _314
REMARK  126  A    between atoms: _316  and  _318
REMARK  127  A    between atoms: _318  and  _319
REMARK  128  A    between atoms: _318  and  _321
REMARK  129  A    between atoms: _321  and  _322
REMARK  130  A    between atoms: _322  and  _323
REMARK  131  A    between atoms: _325  and  _327
REMARK  132  A    between atoms: _327  and  _328
REMARK  133  A    between atoms: _327  and  _330
REMARK  134  A    between atoms: _330  and  _331
REMARK  135  A    between atoms: _331  and  _332
REMARK  136  A    between atoms: _332  and  _333
REMARK  137  A    between atoms: _342  and  _344
REMARK  138  A    between atoms: _344  and  _345
REMARK  139  A    between atoms: _344  and  _347
REMARK  140  A    between atoms: _347  and  _348
REMARK  141  A    between atoms: _353  and  _355
REMARK  142  A    between atoms: _355  and  _356
REMARK  143  A    between atoms: _358  and  _360
REMARK  144  A    between atoms: _360  and  _361
REMARK  145  A    between atoms: _360  and  _363
REMARK  146  A    between atoms: _363  and  _364
REMARK  147  A    between atoms: _367  and  _369
REMARK  148  A    between atoms: _369  and  _370
REMARK  149  A    between atoms: _369  and  _372
REMARK  150  A    between atoms: _372  and  _373
REMARK  151  A    between atoms: _376  and  _378
REMARK  152  A    between atoms: _378  and  _379
REMARK  153  A    between atoms: _381  and  _383
REMARK  154  A    between atoms: _383  and  _384
REMARK  155  A    between atoms: _383  and  _386
REMARK  156  A    between atoms: _386  and  _387
REMARK  157  A    between atoms: _387  and  _388
REMARK  158  A    between atoms: _390  and  _392
REMARK  159  A    between atoms: _392  and  _393
REMARK  160  A    between atoms: _392  and  _395
REMARK  161  A    between atoms: _395  and  _396
REMARK  162  A    between atoms: _401  and  _402
REMARK  163  A    between atoms: _404  and  _406
REMARK  164  A    between atoms: _406  and  _407
REMARK  165  A    between atoms: _406  and  _409
REMARK  166  A    between atoms: _409  and  _410
REMARK  167  A    between atoms: _413  and  _415
REMARK  168  A    between atoms: _415  and  _416
REMARK  169  A    between atoms: _415  and  _418
REMARK  170  A    between atoms: _418  and  _419
REMARK  171  A    between atoms: _425  and  _427
REMARK  172  A    between atoms: _427  and  _428
REMARK  173  A    between atoms: _427  and  _430
REMARK  174  A    between atoms: _433  and  _435
REMARK  175  A    between atoms: _435  and  _436
REMARK  176  A    between atoms: _435  and  _438
REMARK  177  A    between atoms: _438  and  _439
REMARK  178  A    between atoms: _444  and  _446
REMARK  179  A    between atoms: _446  and  _447
REMARK  180  A    between atoms: _446  and  _449
REMARK  181  A    between atoms: _449  and  _450
REMARK  182  A    between atoms: _453  and  _455
REMARK  183  A    between atoms: _455  and  _456
REMARK  184  A    between atoms: _455  and  _458
REMARK  185  A    between atoms: _458  and  _459
REMARK  186  A    between atoms: _462  and  _464
REMARK  187  A    between atoms: _464  and  _465
REMARK  188  A    between atoms: _464  and  _467
REMARK  189  A    between atoms: _467  and  _468
REMARK  190  A    between atoms: _468  and  _469
REMARK  191  A    between atoms: _469  and  _470
REMARK  192  A    between atoms: _479  and  _481
REMARK  193  A    between atoms: _481  and  _482
REMARK  194  A    between atoms: _481  and  _484
REMARK  195  A    between atoms: _484  and  _485
REMARK  196  A    between atoms: _490  and  _492
REMARK  197  A    between atoms: _492  and  _493
REMARK  198  A    between atoms: _492  and  _495
REMARK  199  A    between atoms: _497  and  _499
REMARK  200  A    between atoms: _499  and  _500
REMARK  201  A    between atoms: _499  and  _502
REMARK  202  A    between atoms: _502  and  _503
REMARK  203  A    between atoms: _506  and  _508
REMARK  204  A    between atoms: _508  and  _509
REMARK  205  A    between atoms: _508  and  _511
REMARK  206  A    between atoms: _514  and  _516
REMARK  207  A    between atoms: _516  and  _517
REMARK  208  A    between atoms: _519  and  _521
REMARK  209  A    between atoms: _521  and  _522
REMARK  210  A    between atoms: _521  and  _524
REMARK  211  A    between atoms: _524  and  _525
REMARK  212  A    between atoms: _525  and  _526
REMARK  213  A    between atoms: _526  and  _527
REMARK  214  A    between atoms: _527  and  _528
REMARK  215  A    between atoms: _532  and  _534
REMARK  216  A    between atoms: _534  and  _535
REMARK  217  A    between atoms: _534  and  _537
REMARK  218  A    between atoms: _537  and  _538
REMARK  219  A    between atoms: _541  and  _543
REMARK  220  A    between atoms: _543  and  _544
REMARK  221  A    between atoms: _546  and  _548
REMARK  222  A    between atoms: _548  and  _549
REMARK  223  A    between atoms: _548  and  _551
REMARK  224  A    between atoms: _551  and  _552
REMARK  225  A    between atoms: _555  and  _557
REMARK  226  A    between atoms: _557  and  _558
REMARK  227  A    between atoms: _557  and  _560
REMARK  228  A    between atoms: _560  and  _561
REMARK  229  A    between atoms: _567  and  _569
REMARK  230  A    between atoms: _569  and  _570
REMARK  231  A    between atoms: _572  and  _574
REMARK  232  A    between atoms: _574  and  _575
REMARK  233  A    between atoms: _574  and  _577
REMARK  234  A    between atoms: _577  and  _578
REMARK  235  A    between atoms: _578  and  _579
REMARK  236  A    between atoms: _581  and  _583
REMARK  237  A    between atoms: _583  and  _584
REMARK  238  A    between atoms: _583  and  _586
REMARK  239  A    between atoms: _586  and  _587
REMARK  240  A    between atoms: _589  and  _591
REMARK  241  A    between atoms: _591  and  _592
REMARK  242  A    between atoms: _591  and  _594
REMARK  243  A    between atoms: _594  and  _595
REMARK  244  A    between atoms: _598  and  _600
REMARK  245  A    between atoms: _600  and  _601
REMARK  246  A    between atoms: _600  and  _603
REMARK  247  A    between atoms: _603  and  _604
REMARK  248  A    between atoms: _609  and  _610
REMARK                            x       y       z     vdW  Elec       q    Type
REMARK                         _______ _______ _______ _____ _____    ______ ____
ROOT
ATOM      1  CA  LEU A   1      46.420 -32.597  -6.839  0.00  0.00    +0.133 C 
ENDROOT
BRANCH   1   2
ATOM      2  N   LEU A   1      46.871 -33.714  -7.672  0.00  0.00    -0.239 NA
ATOM      3  H   LEU A   1      46.235 -34.076  -8.411  0.00  0.00    +0.142 HD
ENDBRANCH   1   2
BRANCH   1   4
ATOM      4  C   LEU A   1      46.084 -33.138  -5.458  0.00  0.00    +0.224 C 
ATOM      5  O   LEU A   1      45.142 -33.915  -5.312  0.00  0.00    -0.287 OA
ENDBRANCH   1   4
BRANCH   1   6
ATOM      6  CB  LEU A   1      45.208 -31.868  -7.450  0.00  0.00    +0.025 C 
BRANCH   6   7
ATOM      7  CG  LEU A   1      45.399 -31.185  -8.798  0.00  0.00    +0.002 C 
ATOM      8  CD2 LEU A   1      46.532 -30.178  -8.774  0.00  0.00    +0.000 C 
ATOM      9  CD1 LEU A   1      44.136 -30.503  -9.238  0.00  0.00    +0.000 C 
ENDBRANCH   6   7
ENDBRANCH   1   6
TORSDOF 4
REMARK  Name = ../refined-set-2016/4pmm/4pmm_pocket.pdb
REMARK  248 active torsions:
REMARK  status: ('A' for Active; 'I' for Inactive)
REMARK    1  A    between atoms: _1  and  _3
REMARK    2  A    between atoms: _3  and  _4
REMARK    3  A    between atoms: _3  and  _6
REMARK    4  A    between atoms: _6  and  _7
REMARK    5  A    between atoms: _17  and  _19
REMARK    6  A    between atoms: _19  and  _20
REMARK    7  A    between atoms: _19  and  _22
REMARK    8  A    between atoms: _22  and  _23
REMARK    9  A    between atoms: _26  and  _28
REMARK   10  A    between atoms: _28  and  _29
REMARK   11  A    between atoms: _31  and  _33
REMARK   12  A    between atoms: _33  and  _34
REMARK   13  A    between atoms: _36  and  _38
REMARK   14  A    between atoms: _38  and  _39
REMARK   15  A    between atoms: _38  and  _41
REMARK   16  A    between atoms: _41  and  _42
REMARK   17  A    between atoms: _42  and  _43
REMARK   18  A    between atoms: _43  and  _44
REMARK   19  A    between atoms: _44  and  _45
REMARK   20  A    between atoms: _49  and  _51
REMARK   21  A    between atoms: _51  and  _52
REMARK   22  A    between atoms: _51  and  _54
REMARK   23  A    between atoms: _57  and  _59
REMARK   24  A    between atoms: _59  and  _60
REMARK   25  A    between atoms: _59  and  _62
REMARK   26  A    between atoms: _62  and  _63
REMARK   27  A    between atoms: _69  and  _71
REMARK   28  A    between atoms: _71  and  _72
REMARK   29  A    between atoms: _71  and  _74
REMARK   30  A    between atoms: _74  and  _75
REMARK   31  A    between atoms: _78  and  _80
REMARK   32  A    between atoms: _80  and  _81
REMARK   33  A    between atoms: _84  and  _86
REMARK   34  A    between atoms: _86  and  _87
REMARK   35  A    between atoms: _86  and  _89
REMARK   36  A    between atoms: _92  and  _94
REMARK   37  A    between atoms: _94  and  _95
REMARK   38  A    between atoms: _98  and  _100
REMARK   39  A    between atoms: _100  and  _101
REMARK   40  A    between atoms: _100  and  _103
REMARK   41  A    between atoms: _106  and  _108
REMARK   42  A    between atoms: _108  and  _109
REMARK   43  A    between atoms: _108  and  _111
REMARK   44  A    between atoms: _111  and  _112
REMARK   45  A    between atoms: _112  and  _113
REMARK   46  A    between atoms: _113  and  _114
REMARK   47  A    between atoms: _114  and  _115
REMARK   48  A    between atoms: _119  and  _121
REMARK   49  A    between atoms: _121  and  _122
REMARK   50  A    between atoms: _125  and  _127
REMARK   51  A    between atoms: _127  and  _128
REMARK   52  A    between atoms: _127  and  _130
REMARK   53  A    between atoms: _130  and  _131
REMARK   54  A    between atoms: _134  and  _136
REMARK   55  A    between atoms: _136  and  _137
REMARK   56  A    between atoms: _136  and  _139
REMARK   57  A    between atoms: _139  and  _140
REMARK   58  A    between atoms: _146  and  _148
REMARK   59  A    between atoms: _148  and  _149
REMARK   60  A    between atoms: _148  and  _151
REMARK   61  A    between atoms: _151  and  _152
REMARK   62  A    between atoms: _152  and  _153
REMARK   63  A    between atoms: _153  and  _154
REMARK   64  A    between atoms: _163  and  _165
REMARK   65  A    between atoms: _165  and  _166
REMARK   66  A    between atoms: _165  and  _168
REMARK   67  A    between atoms: _168  and  _169
REMARK   68  A    between atoms: _169  and  _170
REMARK   69  A    between atoms: _173  and  _175
REMARK   70  A    between atoms: _175  and  _176
REMARK   71  A    between atoms: _179  and  _181
REMARK   72  A    between atoms: _181  and  _182
REMARK   73  A    between atoms: _181  and  _184
REMARK   74  A    between atoms: _184  and  _185
REMARK   75  A    between atoms: _188  and  _190
REMARK   76  A    between atoms: _190  and  _191
REMARK   77  A    between atoms: _190  and  _193
REMARK   78  A    between atoms: _193  and  _194
REMARK   79  A    between atoms: _197  and  _199
REMARK   80  A    between atoms: _199  and  _200
REMARK   81  A    between atoms: _199  and  _202
REMARK   82  A    between atoms: _202  and  _203
REMARK   83  A    between atoms: _206  and  _208
REMARK   84  A    between atoms: _208  and  _209
REMARK   85  A    between atoms: _208  and  _211
REMARK   86  A    between atoms: _211  and  _212
REMARK   87  A    between atoms: _217  and  _219
REMARK   88  A    between atoms: _219  and  _220
REMARK   89  A    between atoms: _219  and  _222
REMARK   90  A    between atoms: _222  and  _223
REMARK   91  A    between atoms: _226  and  _228
REMARK   92  A    between atoms: _228  and  _229
REMARK   93  A    between atoms: _228  and  _231
REMARK   94  A    between atoms: _234  and  _236
REMARK   95  A    between atoms: _236  and  _237
REMARK   96  A    between atoms: _236  and  _239
REMARK   97  A    between atoms: _239  and  _240
REMARK   98  A    between atoms: _240  and  _241
REMARK   99  A    between atoms: _241  and  _242
REMARK  100  A    between atoms: _251  and  _253
REMARK  101  A    between atoms: _253  and  _254
REMARK  102  A    between atoms: _253  and  _256
REMARK  103  A    between atoms: _256  and  _257
REMARK  104  A    between atoms: _263  and  _265
REMARK  105  A    between atoms: _265  and  _266
REMARK  106  A    between atoms: _265  and  _268
REMARK  107  A    between atoms: _268  and  _269
REMARK  108  A    between atoms: _269  and  _270
REMARK  109  A    between atoms: _272  and  _274
REMARK  110  A    between atoms: _274  and  _275
REMARK  111  A    between atoms: _274  and  _277
REMARK  112  A    between atoms: _280  and  _282
REMARK  113  A    between atoms: _282  and  _283
REMARK  114  A    between atoms: _282  and  _285
REMARK  115  A    between atoms: _285  and  _286
REMARK  116  A    between atoms: _292  and  _294
REMARK  117  A    between atoms: _294  and  _295
REMARK  118  A    between atoms: _294  and  _297
REMARK  119  A    between atoms: _297  and  _298
REMARK  120  A    between atoms: _298  and  _299
REMARK  121  A    between atoms: _302  and  _304
REMARK  122  A    between atoms: _304  and  _305
REMARK  123  A    between atoms: _304  and  _307
REMARK  124  A    between atoms: _307  and  _308
REMARK  125  A    between atoms: _313  and  _314
REMARK  126  A    between atoms: _316  and  _318
REMARK  127  A    between atoms: _318  and  _319
REMARK  128  A    between atoms: _318  and  _321
REMARK  129  A    between atoms: _321  and  _322
REMARK  130  A    between atoms: _322  and  _323
REMARK  131  A    between atoms: _325  and  _327
REMARK  132  A    between atoms: _327  and  _328
REMARK  133  A    between atoms: _327  and  _330
REMARK  134  A    between atoms: _330  and  _331
REMARK  135  A    between atoms: _331  and  _332
REMARK  136  A    between atoms: _332  and  _333
REMARK  137  A    between atoms: _342  and  _344
REMARK  138  A    between atoms: _344  and  _345
REMARK  139  A    between atoms: _344  and  _347
REMARK  140  A    between atoms: _347  and  _348
REMARK  141  A    between atoms: _353  and  _355
REMARK  142  A    between atoms: _355  and  _356
REMARK  143  A    between atoms: _358  and  _360
REMARK  144  A    between atoms: _360  and  _361
REMARK  145  A    between atoms: _360  and  _363
REMARK  146  A    between atoms: _363  and  _364
REMARK  147  A    between atoms: _367  and  _369
REMARK  148  A    between atoms: _369  and  _370
REMARK  149  A    between atoms: _369  and  _372
REMARK  150  A    between atoms: _372  and  _373
REMARK  151  A    between atoms: _376  and  _378
REMARK  152  A    between atoms: _378  and  _379
REMARK  153  A    between atoms: _381  and  _383
REMARK  154  A    between atoms: _383  and  _384
REMARK  155  A    between atoms: _383  and  _386
REMARK  156  A    between atoms: _386  and  _387
REMARK  157  A    between atoms: _387  and  _388
REMARK  158  A    between atoms: _390  and  _392
REMARK  159  A    between atoms: _392  and  _393
REMARK  160  A    between atoms: _392  and  _395
REMARK  161  A    between atoms: _395  and  _396
REMARK  162  A    between atoms: _401  and  _402
REMARK  163  A    between atoms: _404  and  _406
REMARK  164  A    between atoms: _406  and  _407
REMARK  165  A    between atoms: _406  and  _409
REMARK  166  A    between atoms: _409  and  _410
REMARK  167  A    between atoms: _413  and  _415
REMARK  168  A    between atoms: _415  and  _416
REMARK  169  A    between atoms: _415  and  _418
REMARK  170  A    between atoms: _418  and  _419
REMARK  171  A    between atoms: _425  and  _427
REMARK  172  A    between atoms: _427  and  _428
REMARK  173  A    between atoms: _427  and  _430
REMARK  174  A    between atoms: _433  and  _435
REMARK  175  A    between atoms: _435  and  _436
REMARK  176  A    between atoms: _435  and  _438
REMARK  177  A    between atoms: _438  and  _439
REMARK  178  A    between atoms: _444  and  _446
REMARK  179  A    between atoms: _446  and  _447
REMARK  180  A    between atoms: _446  and  _449
REMARK  181  A    between atoms: _449  and  _450
REMARK  182  A    between atoms: _453  and  _455
REMARK  183  A    between atoms: _455  and  _456
REMARK  184  A    between atoms: _455  and  _458
REMARK  185  A    between atoms: _458  and  _459
REMARK  186  A    between atoms: _462  and  _464
REMARK  187  A    between atoms: _464  and  _465
REMARK  188  A    between atoms: _464  and  _467
REMARK  189  A    between atoms: _467  and  _468
REMARK  190  A    between atoms: _468  and  _469
REMARK  191  A    between atoms: _469  and  _470
REMARK  192  A    between atoms: _479  and  _481
REMARK  193  A    between atoms: _481  and  _482
REMARK  194  A    between atoms: _481  and  _484
REMARK  195  A    between atoms: _484  and  _485
REMARK  196  A    between atoms: _490  and  _492
REMARK  197  A    between atoms: _492  and  _493
REMARK  198  A    between atoms: _492  and  _495
REMARK  199  A    between atoms: _497  and  _499
REMARK  200  A    between atoms: _499  and  _500
REMARK  201  A    between atoms: _499  and  _502
REMARK  202  A    between atoms: _502  and  _503
REMARK  203  A    between atoms: _506  and  _508
REMARK  204  A    between atoms: _508  and  _509
REMARK  205  A    between atoms: _508  and  _511
REMARK  206  A    between atoms: _514  and  _516
REMARK  207  A    between atoms: _516  and  _517
REMARK  208  A    between atoms: _519  and  _521
REMARK  209  A    between atoms: _521  and  _522
REMARK  210  A    between atoms: _521  and  _524
REMARK  211  A    between atoms: _524  and  _525
REMARK  212  A    between atoms: _525  and  _526
REMARK  213  A    between atoms: _526  and  _527
REMARK  214  A    between atoms: _527  and  _528
REMARK  215  A    between atoms: _532  and  _534
REMARK  216  A    between atoms: _534  and  _535
REMARK  217  A    between atoms: _534  and  _537
REMARK  218  A    between atoms: _537  and  _538
REMARK  219  A    between atoms: _541  and  _543
REMARK  220  A    between atoms: _543  and  _544
REMARK  221  A    between atoms: _546  and  _548
REMARK  222  A    between atoms: _548  and  _549
REMARK  223  A    between atoms: _548  and  _551
REMARK  224  A    between atoms: _551  and  _552
REMARK  225  A    between atoms: _555  and  _557
REMARK  226  A    between atoms: _557  and  _558
REMARK  227  A    between atoms: _557  and  _560
REMARK  228  A    between atoms: _560  and  _561
REMARK  229  A    between atoms: _567  and  _569
REMARK  230  A    between atoms: _569  and  _570
REMARK  231  A    between atoms: _572  and  _574
REMARK  232  A    between atoms: _574  and  _575
REMARK  233  A    between atoms: _574  and  _577
REMARK  234  A    between atoms: _577  and  _578
REMARK  235  A    between atoms: _578  and  _579
REMARK  236  A    between atoms: _581  and  _583
REMARK  237  A    between atoms: _583  and  _584
REMARK  238  A    between atoms: _583  and  _586
REMARK  239  A    between atoms: _586  and  _587
REMARK  240  A    between atoms: _589  and  _591
REMARK  241  A    between atoms: _591  and  _592
REMARK  242  A    between atoms: _591  and  _594
REMARK  243  A    between atoms: _594  and  _595
REMARK  244  A    between atoms: _598  and  _600
REMARK  245  A    between atoms: _600  and  _601
REMARK  246  A    between atoms: _600  and  _603
REMARK  247  A    between atoms: _603  and  _604
REMARK  248  A    between atoms: _609  and  _610
REMARK                            x       y       z     vdW  Elec       q    Type
REMARK                         _______ _______ _______ _____ _____    ______ ____
ROOT
ATOM      1  C   VAL A   3      39.096 -33.527  -3.200  0.00  0.00    +0.241 C 
ATOM      2  N   ARG A   4      38.928 -34.440  -2.240  0.00  0.00    -0.297 N 
ATOM      3  H   ARG A   4      38.221 -34.261  -1.498  0.00  0.00    +0.150 HD
ATOM      4  O   VAL A   3      39.944 -33.651  -4.094  0.00  0.00    -0.273 OA
ENDROOT
BRANCH   2   5
ATOM      5  CA  ARG A   4      39.696 -35.678  -2.191  0.00  0.00    +0.149 C 
BRANCH   5   6
ATOM      6  C   ARG A   4      39.188 -36.680  -3.202  0.00  0.00    +0.241 C 
ATOM      7  O   ARG A   4      37.982 -36.900  -3.331  0.00  0.00    -0.273 OA
ATOM      8  N   PHE A   5      40.130 -37.261  -3.936  0.00  0.00    -0.298 N 
ATOM      9  H   PHE A   5      41.112 -36.984  -3.733  0.00  0.00    +0.150 HD
BRANCH   8  10
ATOM     10  CA  PHE A   5      39.939 -38.241  -4.992  0.00  0.00    +0.141 C 
BRANCH  10  11
ATOM     11  C   PHE A   5      40.532 -39.568  -4.495  0.00  0.00    +0.227 C 
ATOM     12  O   PHE A   5      41.685 -39.602  -4.060  0.00  0.00    -0.286 OA
ENDBRANCH  10  11
BRANCH  10  13
ATOM     13  CB  PHE A   5      40.663 -37.770  -6.258  0.00  0.00    +0.054 C 
BRANCH  13  14
ATOM     14  CG  PHE A   5      40.586 -38.718  -7.437  0.00  0.00    -0.020 A 
ATOM     15  CD2 PHE A   5      41.706 -39.428  -7.851  0.00  0.00    -0.004 A 
ATOM     16  CE2 PHE A   5      41.636 -40.291  -8.948  0.00  0.00    -0.000 A 
ATOM     17  CZ  PHE A   5      40.446 -40.450  -9.631  0.00  0.00    -0.000 A 
ATOM     18  CE1 PHE A   5      39.328 -39.759  -9.235  0.00  0.00    -0.000 A 
ATOM     19  CD1 PHE A   5      39.399 -38.886  -8.140  0.00  0.00    -0.004 A 
ENDBRANCH  13  14
ENDBRANCH  10  13
ENDBRANCH   8  10
ENDBRANCH   5   6
BRANCH   5  20
ATOM     20  CB  ARG A   4      39.709 -36.279  -0.777  0.00  0.00    +0.033 C 
BRANCH  20  21
ATOM     21  CG  ARG A   4      40.960 -37.079  -0.525  0.00  0.00    +0.045 C 
BRANCH  21  22
ATOM     22  CD  ARG A   4      40.749 -38.265   0.370  0.00  0.00    +0.174 C 
BRANCH  22  23
ATOM     23  NE  ARG A   4      40.557 -37.915   1.775  0.00  0.00    -0.265 N 
ATOM     24  CZ  ARG A   4      40.943 -38.684   2.789  0.00  0.00    +0.342 C 
ATOM     25  NH2 ARG A   4      40.726 -38.301   4.039  0.00  0.00    -0.292 N 
ATOM     26 HH21 ARG A   4      41.030 -38.906   4.828  0.00  0.00    +0.255 HD
ATOM     27 HH22 ARG A   4      40.252 -37.395   4.231  0.00  0.00    +0.255 HD
ATOM     28  NH1 ARG A   4      41.562 -39.839   2.560  0.00  0.00    -0.292 N 
ATOM     29 HH11 ARG A   4      41.861 -40.436   3.358  0.00  0.00    +0.255 HD
ATOM     30 HH12 ARG A   4      41.747 -40.145   1.583  0.00  0.00    +0.255 HD
ATOM     31  HE  ARG A   4      40.091 -37.012   1.995  0.00  0.00    +0.259 HD
ENDBRANCH  22  23
ENDBRANCH  21  22
ENDBRANCH  20  21
ENDBRANCH   5  20
ENDBRANCH   2   5
BRANCH   1  32
ATOM     32  CA  VAL A   3      38.215 -32.245  -3.111  0.00  0.00    +0.149 C 
BRANCH  32  35
ATOM     33  C   ILE A   2      40.196 -30.837  -2.569  0.00  0.00    +0.241 C 
ATOM     34  O   ILE A   2      40.649 -31.636  -1.740  0.00  0.00    -0.273 OA
ATOM     35  N   VAL A   3      39.046 -31.038  -3.248  0.00  0.00    -0.297 N 
ATOM     36  H   VAL A   3      38.729 -30.297  -3.906  0.00  0.00    +0.150 HD
BRANCH  33  37
ATOM     37  CA  ILE A   2      40.944 -29.528  -2.826  0.00  0.00    +0.148 C 
BRANCH  37  39
ATOM     38  C   HIS A   1      40.869 -27.883  -0.982  0.00  0.00    +0.239 C 
ATOM     39  N   ILE A   2      41.266 -29.056  -1.489  0.00  0.00    -0.297 N 
ATOM     40  H   ILE A   2      41.845 -29.673  -0.885  0.00  0.00    +0.150 HD
ATOM     41  O   HIS A   1      40.198 -27.060  -1.617  0.00  0.00    -0.274 OA
BRANCH  38  42
ATOM     42  CA  HIS A   1      41.195 -27.656   0.489  0.00  0.00    +0.151 C 
BRANCH  42  43
ATOM     43  N   HIS A   1      42.335 -28.450   0.952  0.00  0.00    -0.238 NA
ATOM     44  H   HIS A   1      43.273 -28.321   0.521  0.00  0.00    +0.142 HD
ENDBRANCH  42  43
BRANCH  42  45
ATOM     45  CB  HIS A   1      41.369 -26.168   0.859  0.00  0.00    +0.074 C 
BRANCH  45  46
ATOM     46  CG  HIS A   1      41.419 -26.014   2.349  0.00  0.00    +0.082 A 
ATOM     47  CD2 HIS A   1      42.466 -25.719   3.152  0.00  0.00    +0.115 A 
ATOM     48  NE2 HIS A   1      42.000 -25.778   4.451  0.00  0.00    -0.221 NA
ATOM     49  CE1 HIS A   1      40.713 -26.141   4.397  0.00  0.00    +0.199 A 
ATOM     50  ND1 HIS A   1      40.309 -26.308   3.145  0.00  0.00    -0.227 NA
ENDBRANCH  45  46
ENDBRANCH  42  45
ENDBRANCH  38  42
ENDBRANCH  37  39
BRANCH  37  51
ATOM     51  CB  ILE A   2      42.179 -29.710  -3.760  0.00  0.00    +0.027 C 
ATOM     52  CG2 ILE A   2      41.767 -30.426  -5.096  0.00  0.00    +0.002 C 
BRANCH  51  53
ATOM     53  CG1 ILE A   2      42.891 -28.344  -4.038  0.00  0.00    +0.002 C 
ATOM     54  CD1 ILE A   2      41.990 -27.141  -4.759  0.00  0.00    +0.000 C 
ENDBRANCH  51  53
ENDBRANCH  37  51
ENDBRANCH  33  37
ENDBRANCH  32  35
BRANCH  32  55
ATOM     55  CB  VAL A   3      36.996 -32.249  -4.096  0.00  0.00    +0.027 C 
ATOM     56  CG2 VAL A   3      36.045 -33.418  -3.797  0.00  0.00    +0.002 C 
ATOM     57  CG1 VAL A   3      37.448 -32.286  -5.568  0.00  0.00    +0.002 C 
ENDBRANCH  32  55
ENDBRANCH   1  32
TORSDOF 21
REMARK  Name = ../refined-set-2016/4pmm/4pmm_pocket.pdb
REMARK  248 active torsions:
REMARK  status: ('A' for Active; 'I' for Inactive)
REMARK    1  A    between atoms: _1  and  _3
REMARK    2  A    between atoms: _3  and  _4
REMARK    3  A    between atoms: _3  and  _6
REMARK    4  A    between atoms: _6  and  _7
REMARK    5  A    between atoms: _17  and  _19
REMARK    6  A    between atoms: _19  and  _20
REMARK    7  A    between atoms: _19  and  _22
REMARK    8  A    between atoms: _22  and  _23
REMARK    9  A    between atoms: _26  and  _28
REMARK   10  A    between atoms: _28  and  _29
REMARK   11  A    between atoms: _31  and  _33
REMARK   12  A    between atoms: _33  and  _34
REMARK   13  A    between atoms: _36  and  _38
REMARK   14  A    between atoms: _38  and  _39
REMARK   15  A    between atoms: _38  and  _41
REMARK   16  A    between atoms: _41  and  _42
REMARK   17  A    between atoms: _42  and  _43
REMARK   18  A    between atoms: _43  and  _44
REMARK   19  A    between atoms: _44  and  _45
REMARK   20  A    between atoms: _49  and  _51
REMARK   21  A    between atoms: _51  and  _52
REMARK   22  A    between atoms: _51  and  _54
REMARK   23  A    between atoms: _57  and  _59
REMARK   24  A    between atoms: _59  and  _60
REMARK   25  A    between atoms: _59  and  _62
REMARK   26  A    between atoms: _62  and  _63
REMARK   27  A    between atoms: _69  and  _71
REMARK   28  A    between atoms: _71  and  _72
REMARK   29  A    between atoms: _71  and  _74
REMARK   30  A    between atoms: _74  and  _75
REMARK   31  A    between atoms: _78  and  _80
REMARK   32  A    between atoms: _80  and  _81
REMARK   33  A    between atoms: _84  and  _86
REMARK   34  A    between atoms: _86  and  _87
REMARK   35  A    between atoms: _86  and  _89
REMARK   36  A    between atoms: _92  and  _94
REMARK   37  A    between atoms: _94  and  _95
REMARK   38  A    between atoms: _98  and  _100
REMARK   39  A    between atoms: _100  and  _101
REMARK   40  A    between atoms: _100  and  _103
REMARK   41  A    between atoms: _106  and  _108
REMARK   42  A    between atoms: _108  and  _109
REMARK   43  A    between atoms: _108  and  _111
REMARK   44  A    between atoms: _111  and  _112
REMARK   45  A    between atoms: _112  and  _113
REMARK   46  A    between atoms: _113  and  _114
REMARK   47  A    between atoms: _114  and  _115
REMARK   48  A    between atoms: _119  and  _121
REMARK   49  A    between atoms: _121  and  _122
REMARK   50  A    between atoms: _125  and  _127
REMARK   51  A    between atoms: _127  and  _128
REMARK   52  A    between atoms: _127  and  _130
REMARK   53  A    between atoms: _130  and  _131
REMARK   54  A    between atoms: _134  and  _136
REMARK   55  A    between atoms: _136  and  _137
REMARK   56  A    between atoms: _136  and  _139
REMARK   57  A    between atoms: _139  and  _140
REMARK   58  A    between atoms: _146  and  _148
REMARK   59  A    between atoms: _148  and  _149
REMARK   60  A    between atoms: _148  and  _151
REMARK   61  A    between atoms: _151  and  _152
REMARK   62  A    between atoms: _152  and  _153
REMARK   63  A    between atoms: _153  and  _154
REMARK   64  A    between atoms: _163  and  _165
REMARK   65  A    between atoms: _165  and  _166
REMARK   66  A    between atoms: _165  and  _168
REMARK   67  A    between atoms: _168  and  _169
REMARK   68  A    between atoms: _169  and  _170
REMARK   69  A    between atoms: _173  and  _175
REMARK   70  A    between atoms: _175  and  _176
REMARK   71  A    between atoms: _179  and  _181
REMARK   72  A    between atoms: _181  and  _182
REMARK   73  A    between atoms: _181  and  _184
REMARK   74  A    between atoms: _184  and  _185
REMARK   75  A    between atoms: _188  and  _190
REMARK   76  A    between atoms: _190  and  _191
REMARK   77  A    between atoms: _190  and  _193
REMARK   78  A    between atoms: _193  and  _194
REMARK   79  A    between atoms: _197  and  _199
REMARK   80  A    between atoms: _199  and  _200
REMARK   81  A    between atoms: _199  and  _202
REMARK   82  A    between atoms: _202  and  _203
REMARK   83  A    between atoms: _206  and  _208
REMARK   84  A    between atoms: _208  and  _209
REMARK   85  A    between atoms: _208  and  _211
REMARK   86  A    between atoms: _211  and  _212
REMARK   87  A    between atoms: _217  and  _219
REMARK   88  A    between atoms: _219  and  _220
REMARK   89  A    between atoms: _219  and  _222
REMARK   90  A    between atoms: _222  and  _223
REMARK   91  A    between atoms: _226  and  _228
REMARK   92  A    between atoms: _228  and  _229
REMARK   93  A    between atoms: _228  and  _231
REMARK   94  A    between atoms: _234  and  _236
REMARK   95  A    between atoms: _236  and  _237
REMARK   96  A    between atoms: _236  and  _239
REMARK   97  A    between atoms: _239  and  _240
REMARK   98  A    between atoms: _240  and  _241
REMARK   99  A    between atoms: _241  and  _242
REMARK  100  A    between atoms: _251  and  _253
REMARK  101  A    between atoms: _253  and  _254
REMARK  102  A    between atoms: _253  and  _256
REMARK  103  A    between atoms: _256  and  _257
REMARK  104  A    between atoms: _263  and  _265
REMARK  105  A    between atoms: _265  and  _266
REMARK  106  A    between atoms: _265  and  _268
REMARK  107  A    between atoms: _268  and  _269
REMARK  108  A    between atoms: _269  and  _270
REMARK  109  A    between atoms: _272  and  _274
REMARK  110  A    between atoms: _274  and  _275
REMARK  111  A    between atoms: _274  and  _277
REMARK  112  A    between atoms: _280  and  _282
REMARK  113  A    between atoms: _282  and  _283
REMARK  114  A    between atoms: _282  and  _285
REMARK  115  A    between atoms: _285  and  _286
REMARK  116  A    between atoms: _292  and  _294
REMARK  117  A    between atoms: _294  and  _295
REMARK  118  A    between atoms: _294  and  _297
REMARK  119  A    between atoms: _297  and  _298
REMARK  120  A    between atoms: _298  and  _299
REMARK  121  A    between atoms: _302  and  _304
REMARK  122  A    between atoms: _304  and  _305
REMARK  123  A    between atoms: _304  and  _307
REMARK  124  A    between atoms: _307  and  _308
REMARK  125  A    between atoms: _313  and  _314
REMARK  126  A    between atoms: _316  and  _318
REMARK  127  A    between atoms: _318  and  _319
REMARK  128  A    between atoms: _318  and  _321
REMARK  129  A    between atoms: _321  and  _322
REMARK  130  A    between atoms: _322  and  _323
REMARK  131  A    between atoms: _325  and  _327
REMARK  132  A    between atoms: _327  and  _328
REMARK  133  A    between atoms: _327  and  _330
REMARK  134  A    between atoms: _330  and  _331
REMARK  135  A    between atoms: _331  and  _332
REMARK  136  A    between atoms: _332  and  _333
REMARK  137  A    between atoms: _342  and  _344
REMARK  138  A    between atoms: _344  and  _345
REMARK  139  A    between atoms: _344  and  _347
REMARK  140  A    between atoms: _347  and  _348
REMARK  141  A    between atoms: _353  and  _355
REMARK  142  A    between atoms: _355  and  _356
REMARK  143  A    between atoms: _358  and  _360
REMARK  144  A    between atoms: _360  and  _361
REMARK  145  A    between atoms: _360  and  _363
REMARK  146  A    between atoms: _363  and  _364
REMARK  147  A    between atoms: _367  and  _369
REMARK  148  A    between atoms: _369  and  _370
REMARK  149  A    between atoms: _369  and  _372
REMARK  150  A    between atoms: _372  and  _373
REMARK  151  A    between atoms: _376  and  _378
REMARK  152  A    between atoms: _378  and  _379
REMARK  153  A    between atoms: _381  and  _383
REMARK  154  A    between atoms: _383  and  _384
REMARK  155  A    between atoms: _383  and  _386
REMARK  156  A    between atoms: _386  and  _387
REMARK  157  A    between atoms: _387  and  _388
REMARK  158  A    between atoms: _390  and  _392
REMARK  159  A    between atoms: _392  and  _393
REMARK  160  A    between atoms: _392  and  _395
REMARK  161  A    between atoms: _395  and  _396
REMARK  162  A    between atoms: _401  and  _402
REMARK  163  A    between atoms: _404  and  _406
REMARK  164  A    between atoms: _406  and  _407
REMARK  165  A    between atoms: _406  and  _409
REMARK  166  A    between atoms: _409  and  _410
REMARK  167  A    between atoms: _413  and  _415
REMARK  168  A    between atoms: _415  and  _416
REMARK  169  A    between atoms: _415  and  _418
REMARK  170  A    between atoms: _418  and  _419
REMARK  171  A    between atoms: _425  and  _427
REMARK  172  A    between atoms: _427  and  _428
REMARK  173  A    between atoms: _427  and  _430
REMARK  174  A    between atoms: _433  and  _435
REMARK  175  A    between atoms: _435  and  _436
REMARK  176  A    between atoms: _435  and  _438
REMARK  177  A    between atoms: _438  and  _439
REMARK  178  A    between atoms: _444  and  _446
REMARK  179  A    between atoms: _446  and  _447
REMARK  180  A    between atoms: _446  and  _449
REMARK  181  A    between atoms: _449  and  _450
REMARK  182  A    between atoms: _453  and  _455
REMARK  183  A    between atoms: _455  and  _456
REMARK  184  A    between atoms: _455  and  _458
REMARK  185  A    between atoms: _458  and  _459
REMARK  186  A    between atoms: _462  and  _464
REMARK  187  A    between atoms: _464  and  _465
REMARK  188  A    between atoms: _464  and  _467
REMARK  189  A    between atoms: _467  and  _468
REMARK  190  A    between atoms: _468  and  _469
REMARK  191  A    between atoms: _469  and  _470
REMARK  192  A    between atoms: _479  and  _481
REMARK  193  A    between atoms: _481  and  _482
REMARK  194  A    between atoms: _481  and  _484
REMARK  195  A    between atoms: _484  and  _485
REMARK  196  A    between atoms: _490  and  _492
REMARK  197  A    between atoms: _492  and  _493
REMARK  198  A    between atoms: _492  and  _495
REMARK  199  A    between atoms: _497  and  _499
REMARK  200  A    between atoms: _499  and  _500
REMARK  201  A    between atoms: _499  and  _502
REMARK  202  A    between atoms: _502  and  _503
REMARK  203  A    between atoms: _506  and  _508
REMARK  204  A    between atoms: _508  and  _509
REMARK  205  A    between atoms: _508  and  _511
REMARK  206  A    between atoms: _514  and  _516
REMARK  207  A    between atoms: _516  and  _517
REMARK  208  A    between atoms: _519  and  _521
REMARK  209  A    between atoms: _521  and  _522
REMARK  210  A    between atoms: _521  and  _524
REMARK  211  A    between atoms: _524  and  _525
REMARK  212  A    between atoms: _525  and  _526
REMARK  213  A    between atoms: _526  and  _527
REMARK  214  A    between atoms: _527  and  _528
REMARK  215  A    between atoms: _532  and  _534
REMARK  216  A    between atoms: _534  and  _535
REMARK  217  A    between atoms: _534  and  _537
REMARK  218  A    between atoms: _537  and  _538
REMARK  219  A    between atoms: _541  and  _543
REMARK  220  A    between atoms: _543  and  _544
REMARK  221  A    between atoms: _546  and  _548
REMARK  222  A    between atoms: _548  and  _549
REMARK  223  A    between atoms: _548  and  _551
REMARK  224  A    between atoms: _551  and  _552
REMARK  225  A    between atoms: _555  and  _557
REMARK  226  A    between atoms: _557  and  _558
REMARK  227  A    between atoms: _557  and  _560
REMARK  228  A    between atoms: _560  and  _561
REMARK  229  A    between atoms: _567  and  _569
REMARK  230  A    between atoms: _569  and  _570
REMARK  231  A    between atoms: _572  and  _574
REMARK  232  A    between atoms: _574  and  _575
REMARK  233  A    between atoms: _574  and  _577
REMARK  234  A    between atoms: _577  and  _578
REMARK  235  A    between atoms: _578  and  _579
REMARK  236  A    between atoms: _581  and  _583
REMARK  237  A    between atoms: _583  and  _584
REMARK  238  A    between atoms: _583  and  _586
REMARK  239  A    between atoms: _586  and  _587
REMARK  240  A    between atoms: _589  and  _591
REMARK  241  A    between atoms: _591  and  _592
REMARK  242  A    between atoms: _591  and  _594
REMARK  243  A    between atoms: _594  and  _595
REMARK  244  A    between atoms: _598  and  _600
REMARK  245  A    between atoms: _600  and  _601
REMARK  246  A    between atoms: _600  and  _603
REMARK  247  A    between atoms: _603  and  _604
REMARK  248  A    between atoms: _609  and  _610
REMARK                            x       y       z     vdW  Elec       q    Type
REMARK                         _______ _______ _______ _____ _____    ______ ____
ROOT
ATOM      1  CA  MET A   6      30.853 -33.980   1.986  0.00  0.00    +0.149 C 
ENDROOT
BRANCH   1   2
ATOM      2  C   MET A   6      29.420 -33.707   2.339  0.00  0.00    +0.241 C 
ATOM      3  N   ARG A   7      29.049 -34.051   3.585  0.00  0.00    -0.297 N 
ATOM      4  H   ARG A   7      29.810 -34.354   4.226  0.00  0.00    +0.150 HD
ATOM      5  O   MET A   6      28.645 -33.302   1.475  0.00  0.00    -0.273 OA
BRANCH   3   6
ATOM      6  CA  ARG A   7      27.678 -34.047   4.148  0.00  0.00    +0.149 C 
BRANCH   6   7
ATOM      7  C   ARG A   7      26.817 -32.841   3.785  0.00  0.00    +0.241 C 
ATOM      8  N   HIS A   8      27.399 -31.629   3.861  0.00  0.00    -0.297 N 
ATOM      9  H   HIS A   8      28.408 -31.560   4.104  0.00  0.00    +0.150 HD
ATOM     10  O   ARG A   7      25.650 -33.006   3.413  0.00  0.00    -0.273 OA
BRANCH   8  11
ATOM     11  CA  HIS A   8      26.636 -30.408   3.607  0.00  0.00    +0.155 C 
BRANCH  11  12
ATOM     12  C   HIS A   8      26.507 -29.984   2.153  0.00  0.00    +0.241 C 
ATOM     13  O   HIS A   8      26.018 -28.886   1.919  0.00  0.00    -0.273 OA
ATOM     14  N   GLY A   9      26.876 -30.841   1.196  0.00  0.00    -0.295 N 
ATOM     15  H   GLY A   9      27.263 -31.764   1.478  0.00  0.00    +0.150 HD
BRANCH  14  16
ATOM     16  CA  GLY A   9      26.760 -30.539  -0.233  0.00  0.00    +0.176 C 
BRANCH  16  17
ATOM     17  C   GLY A   9      27.568 -29.333  -0.700  0.00  0.00    +0.243 C 
ATOM     18  O   GLY A   9      28.524 -28.921  -0.027  0.00  0.00    -0.273 OA
ATOM     19  N   ASP A  10      27.171 -28.744  -1.834  0.00  0.00    -0.296 N 
ATOM     20  H   ASP A  10      26.333 -29.109  -2.330  0.00  0.00    +0.150 HD
BRANCH  19  21
ATOM     21  CA  ASP A  10      27.889 -27.600  -2.391  0.00  0.00    +0.160 C 
BRANCH  21  22
ATOM     22  C   ASP A  10      27.746 -26.332  -1.531  0.00  0.00    +0.241 C 
ATOM     23  O   ASP A  10      26.722 -26.118  -0.858  0.00  0.00    -0.273 OA
ATOM     24  N   LEU A  11      28.794 -25.493  -1.556  0.00  0.00    -0.298 N 
ATOM     25  H   LEU A  11      29.606 -25.724  -2.164  0.00  0.00    +0.150 HD
BRANCH  24  26
ATOM     26  CA  LEU A  11      28.836 -24.263  -0.758  0.00  0.00    +0.137 C 
BRANCH  26  27
ATOM     27  C   LEU A  11      27.740 -23.251  -1.113  0.00  0.00    +0.227 C 
ATOM     28  O   LEU A  11      27.273 -22.538  -0.232  0.00  0.00    -0.286 OA
ENDBRANCH  26  27
BRANCH  26  29
ATOM     29  CB  LEU A  11      30.243 -23.649  -0.848  0.00  0.00    +0.028 C 
BRANCH  29  30
ATOM     30  CG  LEU A  11      30.534 -22.347  -0.044  0.00  0.00    +0.002 C 
ATOM     31  CD2 LEU A  11      30.318 -22.571   1.475  0.00  0.00    +0.000 C 
ATOM     32  CD1 LEU A  11      31.965 -21.866  -0.332  0.00  0.00    +0.000 C 
ENDBRANCH  29  30
ENDBRANCH  26  29
ENDBRANCH  24  26
ENDBRANCH  21  22
BRANCH  21  33
ATOM     33  CB  ASP A  10      27.536 -27.351  -3.880  0.00  0.00    +0.143 C 
BRANCH  33  34
ATOM     34  CG  ASP A  10      26.288 -26.550  -4.170  0.00  0.00    +0.367 C 
ATOM     35  OD2 ASP A  10      26.253 -25.348  -3.821  0.00  0.00    -0.246 OA
ATOM     36  OD1 ASP A  10      25.366 -27.105  -4.769  0.00  0.00    -0.246 OA
ENDBRANCH  33  34
ENDBRANCH  21  33
ENDBRANCH  19  21
ENDBRANCH  16  17
ENDBRANCH  14  16
ENDBRANCH  11  12
BRANCH  11  37
ATOM     37  CB  HIS A   8      27.185 -29.265   4.459  0.00  0.00    +0.076 C 
BRANCH  37  38
ATOM     38  CG  HIS A   8      26.979 -29.504   5.909  0.00  0.00    +0.082 A 
ATOM     39  ND1 HIS A   8      27.988 -30.000   6.707  0.00  0.00    -0.227 NA
ATOM     40  CE1 HIS A   8      27.457 -30.135   7.910  0.00  0.00    +0.199 A 
ATOM     41  NE2 HIS A   8      26.179 -29.761   7.922  0.00  0.00    -0.221 NA
ATOM     42  CD2 HIS A   8      25.859 -29.366   6.651  0.00  0.00    +0.115 A 
ENDBRANCH  37  38
ENDBRANCH  11  37
ENDBRANCH   8  11
ENDBRANCH   6   7
BRANCH   6  43
ATOM     43  CB  ARG A   7      27.704 -34.212   5.681  0.00  0.00    +0.033 C 
BRANCH  43  44
ATOM     44  CG  ARG A   7      28.389 -35.489   6.203  0.00  0.00    +0.045 C 
BRANCH  44  45
ATOM     45  CD  ARG A   7      27.712 -36.065   7.436  0.00  0.00    +0.174 C 
BRANCH  45  46
ATOM     46  NE  ARG A   7      26.332 -36.375   7.096  0.00  0.00    -0.265 N 
ATOM     47  HE  ARG A   7      25.659 -35.583   7.052  0.00  0.00    +0.259 HD
ATOM     48  CZ  ARG A   7      25.866 -37.588   6.838  0.00  0.00    +0.342 C 
ATOM     49  NH2 ARG A   7      26.657 -38.650   6.950  0.00  0.00    -0.292 N 
ATOM     50 HH21 ARG A   7      27.648 -38.532   7.242  0.00  0.00    +0.255 HD
ATOM     51 HH22 ARG A   7      26.285 -39.599   6.746  0.00  0.00    +0.255 HD
ATOM     52  NH1 ARG A   7      24.603 -37.753   6.484  0.00  0.00    -0.292 N 
ATOM     53 HH11 ARG A   7      23.973 -36.929   6.407  0.00  0.00    +0.255 HD
ATOM     54 HH12 ARG A   7      24.240 -38.706   6.282  0.00  0.00    +0.255 HD
ENDBRANCH  45  46
ENDBRANCH  44  45
ENDBRANCH  43  44
ENDBRANCH   6  43
ENDBRANCH   3   6
ENDBRANCH   1   2
BRANCH   1  57
ATOM     55  C   TYR A   5      31.499 -36.327   1.510  0.00  0.00    +0.241 C 
ATOM     56  O   TYR A   5      32.225 -36.393   2.499  0.00  0.00    -0.273 OA
ATOM     57  N   MET A   6      30.819 -35.222   1.183  0.00  0.00    -0.297 N 
ATOM     58  H   MET A   6      30.237 -35.237   0.321  0.00  0.00    +0.150 HD
BRANCH  55  59
ATOM     59  CA  TYR A   5      31.403 -37.525   0.554  0.00  0.00    +0.153 C 
BRANCH  59  61
ATOM     60  C   GLU A   4      33.496 -37.480  -0.737  0.00  0.00    +0.241 C 
ATOM     61  N   TYR A   5      32.771 -37.935   0.293  0.00  0.00    -0.297 N 
ATOM     62  H   TYR A   5      33.212 -38.619   0.941  0.00  0.00    +0.150 HD
ATOM     63  O   GLU A   4      33.054 -36.690  -1.613  0.00  0.00    -0.273 OA
BRANCH  60  64
ATOM     64  CA  GLU A   4      34.923 -38.032  -0.788  0.00  0.00    +0.149 C 
BRANCH  64  66
ATOM     65  C   PHE A   3      34.892 -38.902  -3.041  0.00  0.00    +0.241 C 
ATOM     66  N   GLU A   4      35.432 -38.044  -2.158  0.00  0.00    -0.297 N 
ATOM     67  H   GLU A   4      36.198 -37.401  -2.444  0.00  0.00    +0.150 HD
ATOM     68  O   PHE A   3      34.005 -39.705  -2.741  0.00  0.00    -0.273 OA
BRANCH  65  69
ATOM     69  CA  PHE A   3      35.400 -38.830  -4.455  0.00  0.00    +0.153 C 
BRANCH  69  71
ATOM     70  C   VAL A   2      35.955 -40.824  -5.840  0.00  0.00    +0.241 C 
ATOM     71  N   PHE A   3      35.067 -40.040  -5.213  0.00  0.00    -0.297 N 
ATOM     72  H   PHE A   3      34.064 -40.311  -5.268  0.00  0.00    +0.150 HD
ATOM     73  O   VAL A   2      37.177 -40.622  -5.839  0.00  0.00    -0.273 OA
BRANCH  70  74
ATOM     74  CA  VAL A   2      35.367 -42.012  -6.588  0.00  0.00    +0.148 C 
BRANCH  74  76
ATOM     75  C   MET A   1      34.979 -41.640  -8.978  0.00  0.00    +0.238 C 
ATOM     76  N   VAL A   2      35.782 -41.992  -7.987  0.00  0.00    -0.297 N 
ATOM     77  H   VAL A   2      36.758 -42.268  -8.217  0.00  0.00    +0.150 HD
ATOM     78  O   MET A   1      33.810 -41.290  -8.805  0.00  0.00    -0.274 OA
BRANCH  75  79
ATOM     79  CA  MET A   1      35.550 -41.738 -10.390  0.00  0.00    +0.146 C 
BRANCH  79  80
ATOM     80  N   MET A   1      34.593 -42.542 -11.157  0.00  0.00    -0.238 NA
ATOM     81  H   MET A   1      33.606 -42.214 -11.176  0.00  0.00    +0.142 HD
ENDBRANCH  79  80
BRANCH  79  82
ATOM     82  CB  MET A   1      35.747 -40.356 -10.996  0.00  0.00    +0.038 C 
BRANCH  82  83
ATOM     83  CG  MET A   1      36.852 -40.325 -12.014  0.00  0.00    +0.060 C 
BRANCH  83  84
ATOM     84  SD  MET A   1      37.167 -38.640 -12.559  0.00  0.00    -0.139 S 
ATOM     85  CE  MET A   1      35.958 -38.494 -13.805  0.00  0.00    +0.069 C 
ENDBRANCH  83  84
ENDBRANCH  82  83
ENDBRANCH  79  82
ENDBRANCH  75  79
ENDBRANCH  74  76
BRANCH  74  86
ATOM     86  CB  VAL A   2      35.695 -43.386  -5.930  0.00  0.00    +0.027 C 
ATOM     87  CG2 VAL A   2      35.257 -43.432  -4.465  0.00  0.00    +0.002 C 
ATOM     88  CG1 VAL A   2      35.041 -44.528  -6.716  0.00  0.00    +0.002 C 
ENDBRANCH  74  86
ENDBRANCH  70  74
ENDBRANCH  69  71
BRANCH  69  89
ATOM     89  CB  PHE A   3      34.777 -37.590  -5.123  0.00  0.00    +0.055 C 
BRANCH  89  90
ATOM     90  CG  PHE A   3      35.388 -37.230  -6.453  0.00  0.00    -0.020 A 
ATOM     91  CD2 PHE A   3      36.498 -36.396  -6.522  0.00  0.00    -0.004 A 
ATOM     92  CE2 PHE A   3      37.066 -36.068  -7.753  0.00  0.00    -0.000 A 
ATOM     93  CZ  PHE A   3      36.523 -36.570  -8.918  0.00  0.00    -0.000 A 
ATOM     94  CE1 PHE A   3      35.398 -37.357  -8.874  0.00  0.00    -0.000 A 
ATOM     95  CD1 PHE A   3      34.832 -37.694  -7.641  0.00  0.00    -0.004 A 
ENDBRANCH  89  90
ENDBRANCH  69  89
ENDBRANCH  65  69
ENDBRANCH  64  66
BRANCH  64  96
ATOM     96  CB  GLU A   4      35.845 -37.278   0.175  0.00  0.00    +0.041 C 
BRANCH  96  97
ATOM     97  CG  GLU A   4      35.834 -35.789  -0.072  0.00  0.00    +0.116 C 
BRANCH  97  98
ATOM     98  CD  GLU A   4      36.823 -34.979   0.731  0.00  0.00    +0.365 C 
ATOM     99  OE2 GLU A   4      36.960 -35.213   1.953  0.00  0.00    -0.246 OA
ATOM    100  OE1 GLU A   4      37.460 -34.094   0.121  0.00  0.00    -0.246 OA
ENDBRANCH  97  98
ENDBRANCH  96  97
ENDBRANCH  64  96
ENDBRANCH  60  64
ENDBRANCH  59  61
BRANCH  59 101
ATOM    101  CB  TYR A   5      30.620 -38.700   1.167  0.00  0.00    +0.055 C 
BRANCH 101 102
ATOM    102  CG  TYR A   5      29.342 -38.291   1.857  0.00  0.00    -0.020 A 
ATOM    103  CD2 TYR A   5      29.210 -38.395   3.238  0.00  0.00    -0.001 A 
ATOM    104  CE2 TYR A   5      28.030 -38.023   3.883  0.00  0.00    +0.036 A 
ATOM    105  CZ  TYR A   5      26.971 -37.525   3.143  0.00  0.00    +0.134 A 
ATOM    106  CE1 TYR A   5      27.078 -37.414   1.764  0.00  0.00    +0.036 A 
ATOM    107  CD1 TYR A   5      28.259 -37.799   1.130  0.00  0.00    -0.001 A 
BRANCH 105 108
ATOM    108  OH  TYR A   5      25.819 -37.142   3.776  0.00  0.00    -0.506 OA
ATOM    109  HH  TYR A   5      25.169 -36.813   3.106  0.00  0.00    +0.292 HD
ENDBRANCH 105 108
ENDBRANCH 101 102
ENDBRANCH  59 101
ENDBRANCH  55  59
ENDBRANCH   1  57
BRANCH   1 110
ATOM    110  CB  MET A   6      31.484 -32.848   1.144  0.00  0.00    +0.041 C 
BRANCH 110 111
ATOM    111  CG  MET A   6      32.885 -33.198   0.658  0.00  0.00    +0.060 C 
BRANCH 111 112
ATOM    112  SD  MET A   6      34.102 -33.025   1.980  0.00  0.00    -0.139 S 
ATOM    113  CE  MET A   6      34.396 -31.196   1.837  0.00  0.00    +0.069 C 
ENDBRANCH 111 112
ENDBRANCH 110 111
ENDBRANCH   1 110
TORSDOF 47
REMARK  Name = ../refined-set-2016/4pmm/4pmm_pocket.pdb
REMARK  248 active torsions:
REMARK  status: ('A' for Active; 'I' for Inactive)
REMARK    1  A    between atoms: _1  and  _3
REMARK    2  A    between atoms: _3  and  _4
REMARK    3  A    between atoms: _3  and  _6
REMARK    4  A    between atoms: _6  and  _7
REMARK    5  A    between atoms: _17  and  _19
REMARK    6  A    between atoms: _19  and  _20
REMARK    7  A    between atoms: _19  and  _22
REMARK    8  A    between atoms: _22  and  _23
REMARK    9  A    between atoms: _26  and  _28
REMARK   10  A    between atoms: _28  and  _29
REMARK   11  A    between atoms: _31  and  _33
REMARK   12  A    between atoms: _33  and  _34
REMARK   13  A    between atoms: _36  and  _38
REMARK   14  A    between atoms: _38  and  _39
REMARK   15  A    between atoms: _38  and  _41
REMARK   16  A    between atoms: _41  and  _42
REMARK   17  A    between atoms: _42  and  _43
REMARK   18  A    between atoms: _43  and  _44
REMARK   19  A    between atoms: _44  and  _45
REMARK   20  A    between atoms: _49  and  _51
REMARK   21  A    between atoms: _51  and  _52
REMARK   22  A    between atoms: _51  and  _54
REMARK   23  A    between atoms: _57  and  _59
REMARK   24  A    between atoms: _59  and  _60
REMARK   25  A    between atoms: _59  and  _62
REMARK   26  A    between atoms: _62  and  _63
REMARK   27  A    between atoms: _69  and  _71
REMARK   28  A    between atoms: _71  and  _72
REMARK   29  A    between atoms: _71  and  _74
REMARK   30  A    between atoms: _74  and  _75
REMARK   31  A    between atoms: _78  and  _80
REMARK   32  A    between atoms: _80  and  _81
REMARK   33  A    between atoms: _84  and  _86
REMARK   34  A    between atoms: _86  and  _87
REMARK   35  A    between atoms: _86  and  _89
REMARK   36  A    between atoms: _92  and  _94
REMARK   37  A    between atoms: _94  and  _95
REMARK   38  A    between atoms: _98  and  _100
REMARK   39  A    between atoms: _100  and  _101
REMARK   40  A    between atoms: _100  and  _103
REMARK   41  A    between atoms: _106  and  _108
REMARK   42  A    between atoms: _108  and  _109
REMARK   43  A    between atoms: _108  and  _111
REMARK   44  A    between atoms: _111  and  _112
REMARK   45  A    between atoms: _112  and  _113
REMARK   46  A    between atoms: _113  and  _114
REMARK   47  A    between atoms: _114  and  _115
REMARK   48  A    between atoms: _119  and  _121
REMARK   49  A    between atoms: _121  and  _122
REMARK   50  A    between atoms: _125  and  _127
REMARK   51  A    between atoms: _127  and  _128
REMARK   52  A    between atoms: _127  and  _130
REMARK   53  A    between atoms: _130  and  _131
REMARK   54  A    between atoms: _134  and  _136
REMARK   55  A    between atoms: _136  and  _137
REMARK   56  A    between atoms: _136  and  _139
REMARK   57  A    between atoms: _139  and  _140
REMARK   58  A    between atoms: _146  and  _148
REMARK   59  A    between atoms: _148  and  _149
REMARK   60  A    between atoms: _148  and  _151
REMARK   61  A    between atoms: _151  and  _152
REMARK   62  A    between atoms: _152  and  _153
REMARK   63  A    between atoms: _153  and  _154
REMARK   64  A    between atoms: _163  and  _165
REMARK   65  A    between atoms: _165  and  _166
REMARK   66  A    between atoms: _165  and  _168
REMARK   67  A    between atoms: _168  and  _169
REMARK   68  A    between atoms: _169  and  _170
REMARK   69  A    between atoms: _173  and  _175
REMARK   70  A    between atoms: _175  and  _176
REMARK   71  A    between atoms: _179  and  _181
REMARK   72  A    between atoms: _181  and  _182
REMARK   73  A    between atoms: _181  and  _184
REMARK   74  A    between atoms: _184  and  _185
REMARK   75  A    between atoms: _188  and  _190
REMARK   76  A    between atoms: _190  and  _191
REMARK   77  A    between atoms: _190  and  _193
REMARK   78  A    between atoms: _193  and  _194
REMARK   79  A    between atoms: _197  and  _199
REMARK   80  A    between atoms: _199  and  _200
REMARK   81  A    between atoms: _199  and  _202
REMARK   82  A    between atoms: _202  and  _203
REMARK   83  A    between atoms: _206  and  _208
REMARK   84  A    between atoms: _208  and  _209
REMARK   85  A    between atoms: _208  and  _211
REMARK   86  A    between atoms: _211  and  _212
REMARK   87  A    between atoms: _217  and  _219
REMARK   88  A    between atoms: _219  and  _220
REMARK   89  A    between atoms: _219  and  _222
REMARK   90  A    between atoms: _222  and  _223
REMARK   91  A    between atoms: _226  and  _228
REMARK   92  A    between atoms: _228  and  _229
REMARK   93  A    between atoms: _228  and  _231
REMARK   94  A    between atoms: _234  and  _236
REMARK   95  A    between atoms: _236  and  _237
REMARK   96  A    between atoms: _236  and  _239
REMARK   97  A    between atoms: _239  and  _240
REMARK   98  A    between atoms: _240  and  _241
REMARK   99  A    between atoms: _241  and  _242
REMARK  100  A    between atoms: _251  and  _253
REMARK  101  A    between atoms: _253  and  _254
REMARK  102  A    between atoms: _253  and  _256
REMARK  103  A    between atoms: _256  and  _257
REMARK  104  A    between atoms: _263  and  _265
REMARK  105  A    between atoms: _265  and  _266
REMARK  106  A    between atoms: _265  and  _268
REMARK  107  A    between atoms: _268  and  _269
REMARK  108  A    between atoms: _269  and  _270
REMARK  109  A    between atoms: _272  and  _274
REMARK  110  A    between atoms: _274  and  _275
REMARK  111  A    between atoms: _274  and  _277
REMARK  112  A    between atoms: _280  and  _282
REMARK  113  A    between atoms: _282  and  _283
REMARK  114  A    between atoms: _282  and  _285
REMARK  115  A    between atoms: _285  and  _286
REMARK  116  A    between atoms: _292  and  _294
REMARK  117  A    between atoms: _294  and  _295
REMARK  118  A    between atoms: _294  and  _297
REMARK  119  A    between atoms: _297  and  _298
REMARK  120  A    between atoms: _298  and  _299
REMARK  121  A    between atoms: _302  and  _304
REMARK  122  A    between atoms: _304  and  _305
REMARK  123  A    between atoms: _304  and  _307
REMARK  124  A    between atoms: _307  and  _308
REMARK  125  A    between atoms: _313  and  _314
REMARK  126  A    between atoms: _316  and  _318
REMARK  127  A    between atoms: _318  and  _319
REMARK  128  A    between atoms: _318  and  _321
REMARK  129  A    between atoms: _321  and  _322
REMARK  130  A    between atoms: _322  and  _323
REMARK  131  A    between atoms: _325  and  _327
REMARK  132  A    between atoms: _327  and  _328
REMARK  133  A    between atoms: _327  and  _330
REMARK  134  A    between atoms: _330  and  _331
REMARK  135  A    between atoms: _331  and  _332
REMARK  136  A    between atoms: _332  and  _333
REMARK  137  A    between atoms: _342  and  _344
REMARK  138  A    between atoms: _344  and  _345
REMARK  139  A    between atoms: _344  and  _347
REMARK  140  A    between atoms: _347  and  _348
REMARK  141  A    between atoms: _353  and  _355
REMARK  142  A    between atoms: _355  and  _356
REMARK  143  A    between atoms: _358  and  _360
REMARK  144  A    between atoms: _360  and  _361
REMARK  145  A    between atoms: _360  and  _363
REMARK  146  A    between atoms: _363  and  _364
REMARK  147  A    between atoms: _367  and  _369
REMARK  148  A    between atoms: _369  and  _370
REMARK  149  A    between atoms: _369  and  _372
REMARK  150  A    between atoms: _372  and  _373
REMARK  151  A    between atoms: _376  and  _378
REMARK  152  A    between atoms: _378  and  _379
REMARK  153  A    between atoms: _381  and  _383
REMARK  154  A    between atoms: _383  and  _384
REMARK  155  A    between atoms: _383  and  _386
REMARK  156  A    between atoms: _386  and  _387
REMARK  157  A    between atoms: _387  and  _388
REMARK  158  A    between atoms: _390  and  _392
REMARK  159  A    between atoms: _392  and  _393
REMARK  160  A    between atoms: _392  and  _395
REMARK  161  A    between atoms: _395  and  _396
REMARK  162  A    between atoms: _401  and  _402
REMARK  163  A    between atoms: _404  and  _406
REMARK  164  A    between atoms: _406  and  _407
REMARK  165  A    between atoms: _406  and  _409
REMARK  166  A    between atoms: _409  and  _410
REMARK  167  A    between atoms: _413  and  _415
REMARK  168  A    between atoms: _415  and  _416
REMARK  169  A    between atoms: _415  and  _418
REMARK  170  A    between atoms: _418  and  _419
REMARK  171  A    between atoms: _425  and  _427
REMARK  172  A    between atoms: _427  and  _428
REMARK  173  A    between atoms: _427  and  _430
REMARK  174  A    between atoms: _433  and  _435
REMARK  175  A    between atoms: _435  and  _436
REMARK  176  A    between atoms: _435  and  _438
REMARK  177  A    between atoms: _438  and  _439
REMARK  178  A    between atoms: _444  and  _446
REMARK  179  A    between atoms: _446  and  _447
REMARK  180  A    between atoms: _446  and  _449
REMARK  181  A    between atoms: _449  and  _450
REMARK  182  A    between atoms: _453  and  _455
REMARK  183  A    between atoms: _455  and  _456
REMARK  184  A    between atoms: _455  and  _458
REMARK  185  A    between atoms: _458  and  _459
REMARK  186  A    between atoms: _462  and  _464
REMARK  187  A    between atoms: _464  and  _465
REMARK  188  A    between atoms: _464  and  _467
REMARK  189  A    between atoms: _467  and  _468
REMARK  190  A    between atoms: _468  and  _469
REMARK  191  A    between atoms: _469  and  _470
REMARK  192  A    between atoms: _479  and  _481
REMARK  193  A    between atoms: _481  and  _482
REMARK  194  A    between atoms: _481  and  _484
REMARK  195  A    between atoms: _484  and  _485
REMARK  196  A    between atoms: _490  and  _492
REMARK  197  A    between atoms: _492  and  _493
REMARK  198  A    between atoms: _492  and  _495
REMARK  199  A    between atoms: _497  and  _499
REMARK  200  A    between atoms: _499  and  _500
REMARK  201  A    between atoms: _499  and  _502
REMARK  202  A    between atoms: _502  and  _503
REMARK  203  A    between atoms: _506  and  _508
REMARK  204  A    between atoms: _508  and  _509
REMARK  205  A    between atoms: _508  and  _511
REMARK  206  A    between atoms: _514  and  _516
REMARK  207  A    between atoms: _516  and  _517
REMARK  208  A    between atoms: _519  and  _521
REMARK  209  A    between atoms: _521  and  _522
REMARK  210  A    between atoms: _521  and  _524
REMARK  211  A    between atoms: _524  and  _525
REMARK  212  A    between atoms: _525  and  _526
REMARK  213  A    between atoms: _526  and  _527
REMARK  214  A    between atoms: _527  and  _528
REMARK  215  A    between atoms: _532  and  _534
REMARK  216  A    between atoms: _534  and  _535
REMARK  217  A    between atoms: _534  and  _537
REMARK  218  A    between atoms: _537  and  _538
REMARK  219  A    between atoms: _541  and  _543
REMARK  220  A    between atoms: _543  and  _544
REMARK  221  A    between atoms: _546  and  _548
REMARK  222  A    between atoms: _548  and  _549
REMARK  223  A    between atoms: _548  and  _551
REMARK  224  A    between atoms: _551  and  _552
REMARK  225  A    between atoms: _555  and  _557
REMARK  226  A    between atoms: _557  and  _558
REMARK  227  A    between atoms: _557  and  _560
REMARK  228  A    between atoms: _560  and  _561
REMARK  229  A    between atoms: _567  and  _569
REMARK  230  A    between atoms: _569  and  _570
REMARK  231  A    between atoms: _572  and  _574
REMARK  232  A    between atoms: _574  and  _575
REMARK  233  A    between atoms: _574  and  _577
REMARK  234  A    between atoms: _577  and  _578
REMARK  235  A    between atoms: _578  and  _579
REMARK  236  A    between atoms: _581  and  _583
REMARK  237  A    between atoms: _583  and  _584
REMARK  238  A    between atoms: _583  and  _586
REMARK  239  A    between atoms: _586  and  _587
REMARK  240  A    between atoms: _589  and  _591
REMARK  241  A    between atoms: _591  and  _592
REMARK  242  A    between atoms: _591  and  _594
REMARK  243  A    between atoms: _594  and  _595
REMARK  244  A    between atoms: _598  and  _600
REMARK  245  A    between atoms: _600  and  _601
REMARK  246  A    between atoms: _600  and  _603
REMARK  247  A    between atoms: _603  and  _604
REMARK  248  A    between atoms: _609  and  _610
REMARK                            x       y       z     vdW  Elec       q    Type
REMARK                         _______ _______ _______ _____ _____    ______ ____
ROOT
ATOM      1  C   GLY A   1      43.434 -23.322  -3.329  0.00  0.00    +0.240 C 
ATOM      2  N   MET A   2      43.037 -22.035  -3.520  0.00  0.00    -0.298 N 
ATOM      3  H   MET A   2      42.422 -21.596  -2.805  0.00  0.00    +0.150 HD
ATOM      4  O   GLY A   1      44.164 -23.912  -4.119  0.00  0.00    -0.274 OA
ENDROOT
BRANCH   1   5
ATOM      5  CA  GLY A   1      42.947 -24.027  -2.071  0.00  0.00    +0.169 C 
BRANCH   5   6
ATOM      6  N   GLY A   1      42.978 -23.113  -0.934  0.00  0.00    -0.236 NA
ATOM      7  H   GLY A   1      42.083 -22.848  -0.474  0.00  0.00    +0.142 HD
ENDBRANCH   5   6
ENDBRANCH   1   5
BRANCH   2   8
ATOM      8  CA  MET A   2      43.436 -21.229  -4.694  0.00  0.00    +0.138 C 
BRANCH   8   9
ATOM      9  C   MET A   2      44.945 -20.874  -4.642  0.00  0.00    +0.227 C 
ATOM     10  O   MET A   2      45.609 -20.787  -5.685  0.00  0.00    -0.286 OA
ENDBRANCH   8   9
BRANCH   8  11
ATOM     11  CB  MET A   2      42.528 -19.997  -4.868  0.00  0.00    +0.039 C 
BRANCH  11  12
ATOM     12  CG  MET A   2      41.079 -20.335  -5.234  0.00  0.00    +0.060 C 
BRANCH  12  13
ATOM     13  SD  MET A   2      40.906 -21.523  -6.619  0.00  0.00    -0.139 S 
ATOM     14  CE  MET A   2      41.378 -20.415  -8.005  0.00  0.00    +0.069 C 
ENDBRANCH  12  13
ENDBRANCH  11  12
ENDBRANCH   8  11
ENDBRANCH   2   8
TORSDOF 7
REMARK  Name = ../refined-set-2016/4pmm/4pmm_pocket.pdb
REMARK  248 active torsions:
REMARK  status: ('A' for Active; 'I' for Inactive)
REMARK    1  A    between atoms: _1  and  _3
REMARK    2  A    between atoms: _3  and  _4
REMARK    3  A    between atoms: _3  and  _6
REMARK    4  A    between atoms: _6  and  _7
REMARK    5  A    between atoms: _17  and  _19
REMARK    6  A    between atoms: _19  and  _20
REMARK    7  A    between atoms: _19  and  _22
REMARK    8  A    between atoms: _22  and  _23
REMARK    9  A    between atoms: _26  and  _28
REMARK   10  A    between atoms: _28  and  _29
REMARK   11  A    between atoms: _31  and  _33
REMARK   12  A    between atoms: _33  and  _34
REMARK   13  A    between atoms: _36  and  _38
REMARK   14  A    between atoms: _38  and  _39
REMARK   15  A    between atoms: _38  and  _41
REMARK   16  A    between atoms: _41  and  _42
REMARK   17  A    between atoms: _42  and  _43
REMARK   18  A    between atoms: _43  and  _44
REMARK   19  A    between atoms: _44  and  _45
REMARK   20  A    between atoms: _49  and  _51
REMARK   21  A    between atoms: _51  and  _52
REMARK   22  A    between atoms: _51  and  _54
REMARK   23  A    between atoms: _57  and  _59
REMARK   24  A    between atoms: _59  and  _60
REMARK   25  A    between atoms: _59  and  _62
REMARK   26  A    between atoms: _62  and  _63
REMARK   27  A    between atoms: _69  and  _71
REMARK   28  A    between atoms: _71  and  _72
REMARK   29  A    between atoms: _71  and  _74
REMARK   30  A    between atoms: _74  and  _75
REMARK   31  A    between atoms: _78  and  _80
REMARK   32  A    between atoms: _80  and  _81
REMARK   33  A    between atoms: _84  and  _86
REMARK   34  A    between atoms: _86  and  _87
REMARK   35  A    between atoms: _86  and  _89
REMARK   36  A    between atoms: _92  and  _94
REMARK   37  A    between atoms: _94  and  _95
REMARK   38  A    between atoms: _98  and  _100
REMARK   39  A    between atoms: _100  and  _101
REMARK   40  A    between atoms: _100  and  _103
REMARK   41  A    between atoms: _106  and  _108
REMARK   42  A    between atoms: _108  and  _109
REMARK   43  A    between atoms: _108  and  _111
REMARK   44  A    between atoms: _111  and  _112
REMARK   45  A    between atoms: _112  and  _113
REMARK   46  A    between atoms: _113  and  _114
REMARK   47  A    between atoms: _114  and  _115
REMARK   48  A    between atoms: _119  and  _121
REMARK   49  A    between atoms: _121  and  _122
REMARK   50  A    between atoms: _125  and  _127
REMARK   51  A    between atoms: _127  and  _128
REMARK   52  A    between atoms: _127  and  _130
REMARK   53  A    between atoms: _130  and  _131
REMARK   54  A    between atoms: _134  and  _136
REMARK   55  A    between atoms: _136  and  _137
REMARK   56  A    between atoms: _136  and  _139
REMARK   57  A    between atoms: _139  and  _140
REMARK   58  A    between atoms: _146  and  _148
REMARK   59  A    between atoms: _148  and  _149
REMARK   60  A    between atoms: _148  and  _151
REMARK   61  A    between atoms: _151  and  _152
REMARK   62  A    between atoms: _152  and  _153
REMARK   63  A    between atoms: _153  and  _154
REMARK   64  A    between atoms: _163  and  _165
REMARK   65  A    between atoms: _165  and  _166
REMARK   66  A    between atoms: _165  and  _168
REMARK   67  A    between atoms: _168  and  _169
REMARK   68  A    between atoms: _169  and  _170
REMARK   69  A    between atoms: _173  and  _175
REMARK   70  A    between atoms: _175  and  _176
REMARK   71  A    between atoms: _179  and  _181
REMARK   72  A    between atoms: _181  and  _182
REMARK   73  A    between atoms: _181  and  _184
REMARK   74  A    between atoms: _184  and  _185
REMARK   75  A    between atoms: _188  and  _190
REMARK   76  A    between atoms: _190  and  _191
REMARK   77  A    between atoms: _190  and  _193
REMARK   78  A    between atoms: _193  and  _194
REMARK   79  A    between atoms: _197  and  _199
REMARK   80  A    between atoms: _199  and  _200
REMARK   81  A    between atoms: _199  and  _202
REMARK   82  A    between atoms: _202  and  _203
REMARK   83  A    between atoms: _206  and  _208
REMARK   84  A    between atoms: _208  and  _209
REMARK   85  A    between atoms: _208  and  _211
REMARK   86  A    between atoms: _211  and  _212
REMARK   87  A    between atoms: _217  and  _219
REMARK   88  A    between atoms: _219  and  _220
REMARK   89  A    between atoms: _219  and  _222
REMARK   90  A    between atoms: _222  and  _223
REMARK   91  A    between atoms: _226  and  _228
REMARK   92  A    between atoms: _228  and  _229
REMARK   93  A    between atoms: _228  and  _231
REMARK   94  A    between atoms: _234  and  _236
REMARK   95  A    between atoms: _236  and  _237
REMARK   96  A    between atoms: _236  and  _239
REMARK   97  A    between atoms: _239  and  _240
REMARK   98  A    between atoms: _240  and  _241
REMARK   99  A    between atoms: _241  and  _242
REMARK  100  A    between atoms: _251  and  _253
REMARK  101  A    between atoms: _253  and  _254
REMARK  102  A    between atoms: _253  and  _256
REMARK  103  A    between atoms: _256  and  _257
REMARK  104  A    between atoms: _263  and  _265
REMARK  105  A    between atoms: _265  and  _266
REMARK  106  A    between atoms: _265  and  _268
REMARK  107  A    between atoms: _268  and  _269
REMARK  108  A    between atoms: _269  and  _270
REMARK  109  A    between atoms: _272  and  _274
REMARK  110  A    between atoms: _274  and  _275
REMARK  111  A    between atoms: _274  and  _277
REMARK  112  A    between atoms: _280  and  _282
REMARK  113  A    between atoms: _282  and  _283
REMARK  114  A    between atoms: _282  and  _285
REMARK  115  A    between atoms: _285  and  _286
REMARK  116  A    between atoms: _292  and  _294
REMARK  117  A    between atoms: _294  and  _295
REMARK  118  A    between atoms: _294  and  _297
REMARK  119  A    between atoms: _297  and  _298
REMARK  120  A    between atoms: _298  and  _299
REMARK  121  A    between atoms: _302  and  _304
REMARK  122  A    between atoms: _304  and  _305
REMARK  123  A    between atoms: _304  and  _307
REMARK  124  A    between atoms: _307  and  _308
REMARK  125  A    between atoms: _313  and  _314
REMARK  126  A    between atoms: _316  and  _318
REMARK  127  A    between atoms: _318  and  _319
REMARK  128  A    between atoms: _318  and  _321
REMARK  129  A    between atoms: _321  and  _322
REMARK  130  A    between atoms: _322  and  _323
REMARK  131  A    between atoms: _325  and  _327
REMARK  132  A    between atoms: _327  and  _328
REMARK  133  A    between atoms: _327  and  _330
REMARK  134  A    between atoms: _330  and  _331
REMARK  135  A    between atoms: _331  and  _332
REMARK  136  A    between atoms: _332  and  _333
REMARK  137  A    between atoms: _342  and  _344
REMARK  138  A    between atoms: _344  and  _345
REMARK  139  A    between atoms: _344  and  _347
REMARK  140  A    between atoms: _347  and  _348
REMARK  141  A    between atoms: _353  and  _355
REMARK  142  A    between atoms: _355  and  _356
REMARK  143  A    between atoms: _358  and  _360
REMARK  144  A    between atoms: _360  and  _361
REMARK  145  A    between atoms: _360  and  _363
REMARK  146  A    between atoms: _363  and  _364
REMARK  147  A    between atoms: _367  and  _369
REMARK  148  A    between atoms: _369  and  _370
REMARK  149  A    between atoms: _369  and  _372
REMARK  150  A    between atoms: _372  and  _373
REMARK  151  A    between atoms: _376  and  _378
REMARK  152  A    between atoms: _378  and  _379
REMARK  153  A    between atoms: _381  and  _383
REMARK  154  A    between atoms: _383  and  _384
REMARK  155  A    between atoms: _383  and  _386
REMARK  156  A    between atoms: _386  and  _387
REMARK  157  A    between atoms: _387  and  _388
REMARK  158  A    between atoms: _390  and  _392
REMARK  159  A    between atoms: _392  and  _393
REMARK  160  A    between atoms: _392  and  _395
REMARK  161  A    between atoms: _395  and  _396
REMARK  162  A    between atoms: _401  and  _402
REMARK  163  A    between atoms: _404  and  _406
REMARK  164  A    between atoms: _406  and  _407
REMARK  165  A    between atoms: _406  and  _409
REMARK  166  A    between atoms: _409  and  _410
REMARK  167  A    between atoms: _413  and  _415
REMARK  168  A    between atoms: _415  and  _416
REMARK  169  A    between atoms: _415  and  _418
REMARK  170  A    between atoms: _418  and  _419
REMARK  171  A    between atoms: _425  and  _427
REMARK  172  A    between atoms: _427  and  _428
REMARK  173  A    between atoms: _427  and  _430
REMARK  174  A    between atoms: _433  and  _435
REMARK  175  A    between atoms: _435  and  _436
REMARK  176  A    between atoms: _435  and  _438
REMARK  177  A    between atoms: _438  and  _439
REMARK  178  A    between atoms: _444  and  _446
REMARK  179  A    between atoms: _446  and  _447
REMARK  180  A    between atoms: _446  and  _449
REMARK  181  A    between atoms: _449  and  _450
REMARK  182  A    between atoms: _453  and  _455
REMARK  183  A    between atoms: _455  and  _456
REMARK  184  A    between atoms: _455  and  _458
REMARK  185  A    between atoms: _458  and  _459
REMARK  186  A    between atoms: _462  and  _464
REMARK  187  A    between atoms: _464  and  _465
REMARK  188  A    between atoms: _464  and  _467
REMARK  189  A    between atoms: _467  and  _468
REMARK  190  A    between atoms: _468  and  _469
REMARK  191  A    between atoms: _469  and  _470
REMARK  192  A    between atoms: _479  and  _481
REMARK  193  A    between atoms: _481  and  _482
REMARK  194  A    between atoms: _481  and  _484
REMARK  195  A    between atoms: _484  and  _485
REMARK  196  A    between atoms: _490  and  _492
REMARK  197  A    between atoms: _492  and  _493
REMARK  198  A    between atoms: _492  and  _495
REMARK  199  A    between atoms: _497  and  _499
REMARK  200  A    between atoms: _499  and  _500
REMARK  201  A    between atoms: _499  and  _502
REMARK  202  A    between atoms: _502  and  _503
REMARK  203  A    between atoms: _506  and  _508
REMARK  204  A    between atoms: _508  and  _509
REMARK  205  A    between atoms: _508  and  _511
REMARK  206  A    between atoms: _514  and  _516
REMARK  207  A    between atoms: _516  and  _517
REMARK  208  A    between atoms: _519  and  _521
REMARK  209  A    between atoms: _521  and  _522
REMARK  210  A    between atoms: _521  and  _524
REMARK  211  A    between atoms: _524  and  _525
REMARK  212  A    between atoms: _525  and  _526
REMARK  213  A    between atoms: _526  and  _527
REMARK  214  A    between atoms: _527  and  _528
REMARK  215  A    between atoms: _532  and  _534
REMARK  216  A    between atoms: _534  and  _535
REMARK  217  A    between atoms: _534  and  _537
REMARK  218  A    between atoms: _537  and  _538
REMARK  219  A    between atoms: _541  and  _543
REMARK  220  A    between atoms: _543  and  _544
REMARK  221  A    between atoms: _546  and  _548
REMARK  222  A    between atoms: _548  and  _549
REMARK  223  A    between atoms: _548  and  _551
REMARK  224  A    between atoms: _551  and  _552
REMARK  225  A    between atoms: _555  and  _557
REMARK  226  A    between atoms: _557  and  _558
REMARK  227  A    between atoms: _557  and  _560
REMARK  228  A    between atoms: _560  and  _561
REMARK  229  A    between atoms: _567  and  _569
REMARK  230  A    between atoms: _569  and  _570
REMARK  231  A    between atoms: _572  and  _574
REMARK  232  A    between atoms: _574  and  _575
REMARK  233  A    between atoms: _574  and  _577
REMARK  234  A    between atoms: _577  and  _578
REMARK  235  A    between atoms: _578  and  _579
REMARK  236  A    between atoms: _581  and  _583
REMARK  237  A    between atoms: _583  and  _584
REMARK  238  A    between atoms: _583  and  _586
REMARK  239  A    between atoms: _586  and  _587
REMARK  240  A    between atoms: _589  and  _591
REMARK  241  A    between atoms: _591  and  _592
REMARK  242  A    between atoms: _591  and  _594
REMARK  243  A    between atoms: _594  and  _595
REMARK  244  A    between atoms: _598  and  _600
REMARK  245  A    between atoms: _600  and  _601
REMARK  246  A    between atoms: _600  and  _603
REMARK  247  A    between atoms: _603  and  _604
REMARK  248  A    between atoms: _609  and  _610
REMARK                            x       y       z     vdW  Elec       q    Type
REMARK                         _______ _______ _______ _____ _____    ______ ____
ROOT
ATOM      1  CA  TYR A   1      47.813 -24.195  -3.849  0.00  0.00    +0.149 C 
ENDROOT
BRANCH   1   2
ATOM      2  C   TYR A   1      47.796 -24.349  -5.372  0.00  0.00    +0.239 C 
ATOM      3  O   TYR A   1      48.823 -24.676  -5.979  0.00  0.00    -0.274 OA
ATOM      4  N   LEU A   2      46.631 -24.093  -6.000  0.00  0.00    -0.298 N 
ATOM      5  H   LEU A   2      45.795 -23.824  -5.443  0.00  0.00    +0.150 HD
BRANCH   4   6
ATOM      6  CA  LEU A   2      46.529 -24.189  -7.453  0.00  0.00    +0.137 C 
BRANCH   6   7
ATOM      7  C   LEU A   2      47.445 -23.182  -8.175  0.00  0.00    +0.227 C 
ATOM      8  O   LEU A   2      48.098 -23.555  -9.153  0.00  0.00    -0.286 OA
ENDBRANCH   6   7
BRANCH   6   9
ATOM      9  CB  LEU A   2      45.072 -24.022  -7.895  0.00  0.00    +0.028 C 
BRANCH   9  10
ATOM     10  CG  LEU A   2      44.104 -25.103  -7.402  0.00  0.00    +0.002 C 
ATOM     11  CD2 LEU A   2      44.572 -26.494  -7.845  0.00  0.00    +0.000 C 
ATOM     12  CD1 LEU A   2      42.701 -24.811  -7.918  0.00  0.00    +0.000 C 
ENDBRANCH   9  10
ENDBRANCH   6   9
ENDBRANCH   4   6
ENDBRANCH   1   2
BRANCH   1  13
ATOM     13  N   TYR A   1      47.212 -22.931  -3.439  0.00  0.00    -0.238 NA
ATOM     14  H   TYR A   1      46.366 -22.957  -2.835  0.00  0.00    +0.142 HD
ENDBRANCH   1  13
BRANCH   1  15
ATOM     15  CB  TYR A   1      47.126 -25.370  -3.122  0.00  0.00    +0.053 C 
BRANCH  15  16
ATOM     16  CG  TYR A   1      47.537 -26.728  -3.640  0.00  0.00    -0.020 A 
ATOM     17  CD2 TYR A   1      48.783 -27.267  -3.329  0.00  0.00    -0.001 A 
ATOM     18  CE2 TYR A   1      49.174 -28.513  -3.819  0.00  0.00    +0.036 A 
ATOM     19  CZ  TYR A   1      48.312 -29.228  -4.631  0.00  0.00    +0.134 A 
ATOM     20  CE1 TYR A   1      47.072 -28.708  -4.957  0.00  0.00    +0.036 A 
ATOM     21  CD1 TYR A   1      46.686 -27.472  -4.447  0.00  0.00    -0.001 A 
BRANCH  19  22
ATOM     22  OH  TYR A   1      48.668 -30.448  -5.118  0.00  0.00    -0.506 OA
ATOM     23  HH  TYR A   1      49.576 -30.678  -4.797  0.00  0.00    +0.292 HD
ENDBRANCH  19  22
ENDBRANCH  15  16
ENDBRANCH   1  15
TORSDOF 9
REMARK  Name = ../refined-set-2016/4pmm/4pmm_pocket.pdb
REMARK  248 active torsions:
REMARK  status: ('A' for Active; 'I' for Inactive)
REMARK    1  A    between atoms: _1  and  _3
REMARK    2  A    between atoms: _3  and  _4
REMARK    3  A    between atoms: _3  and  _6
REMARK    4  A    between atoms: _6  and  _7
REMARK    5  A    between atoms: _17  and  _19
REMARK    6  A    between atoms: _19  and  _20
REMARK    7  A    between atoms: _19  and  _22
REMARK    8  A    between atoms: _22  and  _23
REMARK    9  A    between atoms: _26  and  _28
REMARK   10  A    between atoms: _28  and  _29
REMARK   11  A    between atoms: _31  and  _33
REMARK   12  A    between atoms: _33  and  _34
REMARK   13  A    between atoms: _36  and  _38
REMARK   14  A    between atoms: _38  and  _39
REMARK   15  A    between atoms: _38  and  _41
REMARK   16  A    between atoms: _41  and  _42
REMARK   17  A    between atoms: _42  and  _43
REMARK   18  A    between atoms: _43  and  _44
REMARK   19  A    between atoms: _44  and  _45
REMARK   20  A    between atoms: _49  and  _51
REMARK   21  A    between atoms: _51  and  _52
REMARK   22  A    between atoms: _51  and  _54
REMARK   23  A    between atoms: _57  and  _59
REMARK   24  A    between atoms: _59  and  _60
REMARK   25  A    between atoms: _59  and  _62
REMARK   26  A    between atoms: _62  and  _63
REMARK   27  A    between atoms: _69  and  _71
REMARK   28  A    between atoms: _71  and  _72
REMARK   29  A    between atoms: _71  and  _74
REMARK   30  A    between atoms: _74  and  _75
REMARK   31  A    between atoms: _78  and  _80
REMARK   32  A    between atoms: _80  and  _81
REMARK   33  A    between atoms: _84  and  _86
REMARK   34  A    between atoms: _86  and  _87
REMARK   35  A    between atoms: _86  and  _89
REMARK   36  A    between atoms: _92  and  _94
REMARK   37  A    between atoms: _94  and  _95
REMARK   38  A    between atoms: _98  and  _100
REMARK   39  A    between atoms: _100  and  _101
REMARK   40  A    between atoms: _100  and  _103
REMARK   41  A    between atoms: _106  and  _108
REMARK   42  A    between atoms: _108  and  _109
REMARK   43  A    between atoms: _108  and  _111
REMARK   44  A    between atoms: _111  and  _112
REMARK   45  A    between atoms: _112  and  _113
REMARK   46  A    between atoms: _113  and  _114
REMARK   47  A    between atoms: _114  and  _115
REMARK   48  A    between atoms: _119  and  _121
REMARK   49  A    between atoms: _121  and  _122
REMARK   50  A    between atoms: _125  and  _127
REMARK   51  A    between atoms: _127  and  _128
REMARK   52  A    between atoms: _127  and  _130
REMARK   53  A    between atoms: _130  and  _131
REMARK   54  A    between atoms: _134  and  _136
REMARK   55  A    between atoms: _136  and  _137
REMARK   56  A    between atoms: _136  and  _139
REMARK   57  A    between atoms: _139  and  _140
REMARK   58  A    between atoms: _146  and  _148
REMARK   59  A    between atoms: _148  and  _149
REMARK   60  A    between atoms: _148  and  _151
REMARK   61  A    between atoms: _151  and  _152
REMARK   62  A    between atoms: _152  and  _153
REMARK   63  A    between atoms: _153  and  _154
REMARK   64  A    between atoms: _163  and  _165
REMARK   65  A    between atoms: _165  and  _166
REMARK   66  A    between atoms: _165  and  _168
REMARK   67  A    between atoms: _168  and  _169
REMARK   68  A    between atoms: _169  and  _170
REMARK   69  A    between atoms: _173  and  _175
REMARK   70  A    between atoms: _175  and  _176
REMARK   71  A    between atoms: _179  and  _181
REMARK   72  A    between atoms: _181  and  _182
REMARK   73  A    between atoms: _181  and  _184
REMARK   74  A    between atoms: _184  and  _185
REMARK   75  A    between atoms: _188  and  _190
REMARK   76  A    between atoms: _190  and  _191
REMARK   77  A    between atoms: _190  and  _193
REMARK   78  A    between atoms: _193  and  _194
REMARK   79  A    between atoms: _197  and  _199
REMARK   80  A    between atoms: _199  and  _200
REMARK   81  A    between atoms: _199  and  _202
REMARK   82  A    between atoms: _202  and  _203
REMARK   83  A    between atoms: _206  and  _208
REMARK   84  A    between atoms: _208  and  _209
REMARK   85  A    between atoms: _208  and  _211
REMARK   86  A    between atoms: _211  and  _212
REMARK   87  A    between atoms: _217  and  _219
REMARK   88  A    between atoms: _219  and  _220
REMARK   89  A    between atoms: _219  and  _222
REMARK   90  A    between atoms: _222  and  _223
REMARK   91  A    between atoms: _226  and  _228
REMARK   92  A    between atoms: _228  and  _229
REMARK   93  A    between atoms: _228  and  _231
REMARK   94  A    between atoms: _234  and  _236
REMARK   95  A    between atoms: _236  and  _237
REMARK   96  A    between atoms: _236  and  _239
REMARK   97  A    between atoms: _239  and  _240
REMARK   98  A    between atoms: _240  and  _241
REMARK   99  A    between atoms: _241  and  _242
REMARK  100  A    between atoms: _251  and  _253
REMARK  101  A    between atoms: _253  and  _254
REMARK  102  A    between atoms: _253  and  _256
REMARK  103  A    between atoms: _256  and  _257
REMARK  104  A    between atoms: _263  and  _265
REMARK  105  A    between atoms: _265  and  _266
REMARK  106  A    between atoms: _265  and  _268
REMARK  107  A    between atoms: _268  and  _269
REMARK  108  A    between atoms: _269  and  _270
REMARK  109  A    between atoms: _272  and  _274
REMARK  110  A    between atoms: _274  and  _275
REMARK  111  A    between atoms: _274  and  _277
REMARK  112  A    between atoms: _280  and  _282
REMARK  113  A    between atoms: _282  and  _283
REMARK  114  A    between atoms: _282  and  _285
REMARK  115  A    between atoms: _285  and  _286
REMARK  116  A    between atoms: _292  and  _294
REMARK  117  A    between atoms: _294  and  _295
REMARK  118  A    between atoms: _294  and  _297
REMARK  119  A    between atoms: _297  and  _298
REMARK  120  A    between atoms: _298  and  _299
REMARK  121  A    between atoms: _302  and  _304
REMARK  122  A    between atoms: _304  and  _305
REMARK  123  A    between atoms: _304  and  _307
REMARK  124  A    between atoms: _307  and  _308
REMARK  125  A    between atoms: _313  and  _314
REMARK  126  A    between atoms: _316  and  _318
REMARK  127  A    between atoms: _318  and  _319
REMARK  128  A    between atoms: _318  and  _321
REMARK  129  A    between atoms: _321  and  _322
REMARK  130  A    between atoms: _322  and  _323
REMARK  131  A    between atoms: _325  and  _327
REMARK  132  A    between atoms: _327  and  _328
REMARK  133  A    between atoms: _327  and  _330
REMARK  134  A    between atoms: _330  and  _331
REMARK  135  A    between atoms: _331  and  _332
REMARK  136  A    between atoms: _332  and  _333
REMARK  137  A    between atoms: _342  and  _344
REMARK  138  A    between atoms: _344  and  _345
REMARK  139  A    between atoms: _344  and  _347
REMARK  140  A    between atoms: _347  and  _348
REMARK  141  A    between atoms: _353  and  _355
REMARK  142  A    between atoms: _355  and  _356
REMARK  143  A    between atoms: _358  and  _360
REMARK  144  A    between atoms: _360  and  _361
REMARK  145  A    between atoms: _360  and  _363
REMARK  146  A    between atoms: _363  and  _364
REMARK  147  A    between atoms: _367  and  _369
REMARK  148  A    between atoms: _369  and  _370
REMARK  149  A    between atoms: _369  and  _372
REMARK  150  A    between atoms: _372  and  _373
REMARK  151  A    between atoms: _376  and  _378
REMARK  152  A    between atoms: _378  and  _379
REMARK  153  A    between atoms: _381  and  _383
REMARK  154  A    between atoms: _383  and  _384
REMARK  155  A    between atoms: _383  and  _386
REMARK  156  A    between atoms: _386  and  _387
REMARK  157  A    between atoms: _387  and  _388
REMARK  158  A    between atoms: _390  and  _392
REMARK  159  A    between atoms: _392  and  _393
REMARK  160  A    between atoms: _392  and  _395
REMARK  161  A    between atoms: _395  and  _396
REMARK  162  A    between atoms: _401  and  _402
REMARK  163  A    between atoms: _404  and  _406
REMARK  164  A    between atoms: _406  and  _407
REMARK  165  A    between atoms: _406  and  _409
REMARK  166  A    between atoms: _409  and  _410
REMARK  167  A    between atoms: _413  and  _415
REMARK  168  A    between atoms: _415  and  _416
REMARK  169  A    between atoms: _415  and  _418
REMARK  170  A    between atoms: _418  and  _419
REMARK  171  A    between atoms: _425  and  _427
REMARK  172  A    between atoms: _427  and  _428
REMARK  173  A    between atoms: _427  and  _430
REMARK  174  A    between atoms: _433  and  _435
REMARK  175  A    between atoms: _435  and  _436
REMARK  176  A    between atoms: _435  and  _438
REMARK  177  A    between atoms: _438  and  _439
REMARK  178  A    between atoms: _444  and  _446
REMARK  179  A    between atoms: _446  and  _447
REMARK  180  A    between atoms: _446  and  _449
REMARK  181  A    between atoms: _449  and  _450
REMARK  182  A    between atoms: _453  and  _455
REMARK  183  A    between atoms: _455  and  _456
REMARK  184  A    between atoms: _455  and  _458
REMARK  185  A    between atoms: _458  and  _459
REMARK  186  A    between atoms: _462  and  _464
REMARK  187  A    between atoms: _464  and  _465
REMARK  188  A    between atoms: _464  and  _467
REMARK  189  A    between atoms: _467  and  _468
REMARK  190  A    between atoms: _468  and  _469
REMARK  191  A    between atoms: _469  and  _470
REMARK  192  A    between atoms: _479  and  _481
REMARK  193  A    between atoms: _481  and  _482
REMARK  194  A    between atoms: _481  and  _484
REMARK  195  A    between atoms: _484  and  _485
REMARK  196  A    between atoms: _490  and  _492
REMARK  197  A    between atoms: _492  and  _493
REMARK  198  A    between atoms: _492  and  _495
REMARK  199  A    between atoms: _497  and  _499
REMARK  200  A    between atoms: _499  and  _500
REMARK  201  A    between atoms: _499  and  _502
REMARK  202  A    between atoms: _502  and  _503
REMARK  203  A    between atoms: _506  and  _508
REMARK  204  A    between atoms: _508  and  _509
REMARK  205  A    between atoms: _508  and  _511
REMARK  206  A    between atoms: _514  and  _516
REMARK  207  A    between atoms: _516  and  _517
REMARK  208  A    between atoms: _519  and  _521
REMARK  209  A    between atoms: _521  and  _522
REMARK  210  A    between atoms: _521  and  _524
REMARK  211  A    between atoms: _524  and  _525
REMARK  212  A    between atoms: _525  and  _526
REMARK  213  A    between atoms: _526  and  _527
REMARK  214  A    between atoms: _527  and  _528
REMARK  215  A    between atoms: _532  and  _534
REMARK  216  A    between atoms: _534  and  _535
REMARK  217  A    between atoms: _534  and  _537
REMARK  218  A    between atoms: _537  and  _538
REMARK  219  A    between atoms: _541  and  _543
REMARK  220  A    between atoms: _543  and  _544
REMARK  221  A    between atoms: _546  and  _548
REMARK  222  A    between atoms: _548  and  _549
REMARK  223  A    between atoms: _548  and  _551
REMARK  224  A    between atoms: _551  and  _552
REMARK  225  A    between atoms: _555  and  _557
REMARK  226  A    between atoms: _557  and  _558
REMARK  227  A    between atoms: _557  and  _560
REMARK  228  A    between atoms: _560  and  _561
REMARK  229  A    between atoms: _567  and  _569
REMARK  230  A    between atoms: _569  and  _570
REMARK  231  A    between atoms: _572  and  _574
REMARK  232  A    between atoms: _574  and  _575
REMARK  233  A    between atoms: _574  and  _577
REMARK  234  A    between atoms: _577  and  _578
REMARK  235  A    between atoms: _578  and  _579
REMARK  236  A    between atoms: _581  and  _583
REMARK  237  A    between atoms: _583  and  _584
REMARK  238  A    between atoms: _583  and  _586
REMARK  239  A    between atoms: _586  and  _587
REMARK  240  A    between atoms: _589  and  _591
REMARK  241  A    between atoms: _591  and  _592
REMARK  242  A    between atoms: _591  and  _594
REMARK  243  A    between atoms: _594  and  _595
REMARK  244  A    between atoms: _598  and  _600
REMARK  245  A    between atoms: _600  and  _601
REMARK  246  A    between atoms: _600  and  _603
REMARK  247  A    between atoms: _603  and  _604
REMARK  248  A    between atoms: _609  and  _610
REMARK                            x       y       z     vdW  Elec       q    Type
REMARK                         _______ _______ _______ _____ _____    ______ ____
ROOT
ATOM      1  CA  VAL A   2      44.088 -22.211 -13.729  0.00  0.00    +0.148 C 
ENDROOT
BRANCH   1   4
ATOM      2  C   PHE A   1      45.901 -23.309 -12.454  0.00  0.00    +0.239 C 
ATOM      3  O   PHE A   1      45.674 -22.670 -11.430  0.00  0.00    -0.274 OA
ATOM      4  N   VAL A   2      45.186 -23.171 -13.572  0.00  0.00    -0.297 N 
ATOM      5  H   VAL A   2      45.421 -23.781 -14.381  0.00  0.00    +0.150 HD
BRANCH   2   6
ATOM      6  CA  PHE A   1      47.013 -24.374 -12.464  0.00  0.00    +0.149 C 
BRANCH   6   7
ATOM      7  N   PHE A   1      48.256 -23.766 -12.044  0.00  0.00    -0.238 NA
ATOM      8  H   PHE A   1      48.442 -23.652 -11.027  0.00  0.00    +0.142 HD
ENDBRANCH   6   7
BRANCH   6   9
ATOM      9  CB  PHE A   1      46.662 -25.554 -11.540  0.00  0.00    +0.053 C 
BRANCH   9  10
ATOM     10  CG  PHE A   1      45.416 -26.288 -11.967  0.00  0.00    -0.020 A 
ATOM     11  CD2 PHE A   1      44.153 -25.844 -11.573  0.00  0.00    -0.004 A 
ATOM     12  CE2 PHE A   1      43.001 -26.513 -11.984  0.00  0.00    -0.000 A 
ATOM     13  CZ  PHE A   1      43.105 -27.650 -12.759  0.00  0.00    -0.000 A 
ATOM     14  CE1 PHE A   1      44.339 -28.094 -13.172  0.00  0.00    -0.000 A 
ATOM     15  CD1 PHE A   1      45.499 -27.420 -12.767  0.00  0.00    -0.004 A 
ENDBRANCH   9  10
ENDBRANCH   6   9
ENDBRANCH   2   6
ENDBRANCH   1   4
BRANCH   1  16
ATOM     16  C   VAL A   2      42.796 -22.989 -13.621  0.00  0.00    +0.241 C 
ATOM     17  N   HIS A   3      41.948 -22.621 -12.666  0.00  0.00    -0.298 N 
ATOM     18  H   HIS A   3      42.197 -21.813 -12.060  0.00  0.00    +0.150 HD
ATOM     19  O   VAL A   2      42.569 -23.909 -14.392  0.00  0.00    -0.273 OA
BRANCH  17  20
ATOM     20  CA  HIS A   3      40.676 -23.310 -12.434  0.00  0.00    +0.143 C 
BRANCH  20  21
ATOM     21  C   HIS A   3      39.667 -22.985 -13.551  0.00  0.00    +0.227 C 
ATOM     22  O   HIS A   3      39.129 -23.905 -14.177  0.00  0.00    -0.286 OA
ENDBRANCH  20  21
BRANCH  20  23
ATOM     23  CB  HIS A   3      40.133 -22.923 -11.035  0.00  0.00    +0.075 C 
BRANCH  23  24
ATOM     24  CG  HIS A   3      38.952 -23.730 -10.592  0.00  0.00    +0.082 A 
ATOM     25  CD2 HIS A   3      38.828 -24.571  -9.537  0.00  0.00    +0.115 A 
ATOM     26  NE2 HIS A   3      37.546 -25.056  -9.567  0.00  0.00    -0.221 NA
ATOM     27  CE1 HIS A   3      36.943 -24.517 -10.627  0.00  0.00    +0.199 A 
ATOM     28  ND1 HIS A   3      37.751 -23.690 -11.269  0.00  0.00    -0.227 NA
ENDBRANCH  23  24
ENDBRANCH  20  23
ENDBRANCH  17  20
ENDBRANCH   1  16
BRANCH   1  29
ATOM     29  CB  VAL A   2      44.184 -21.397 -15.055  0.00  0.00    +0.027 C 
ATOM     30  CG2 VAL A   2      43.031 -20.388 -15.165  0.00  0.00    +0.002 C 
ATOM     31  CG1 VAL A   2      45.540 -20.687 -15.172  0.00  0.00    +0.002 C 
ENDBRANCH   1  29
TORSDOF 11
REMARK  Name = ../refined-set-2016/4pmm/4pmm_pocket.pdb
REMARK  248 active torsions:
REMARK  status: ('A' for Active; 'I' for Inactive)
REMARK    1  A    between atoms: _1  and  _3
REMARK    2  A    between atoms: _3  and  _4
REMARK    3  A    between atoms: _3  and  _6
REMARK    4  A    between atoms: _6  and  _7
REMARK    5  A    between atoms: _17  and  _19
REMARK    6  A    between atoms: _19  and  _20
REMARK    7  A    between atoms: _19  and  _22
REMARK    8  A    between atoms: _22  and  _23
REMARK    9  A    between atoms: _26  and  _28
REMARK   10  A    between atoms: _28  and  _29
REMARK   11  A    between atoms: _31  and  _33
REMARK   12  A    between atoms: _33  and  _34
REMARK   13  A    between atoms: _36  and  _38
REMARK   14  A    between atoms: _38  and  _39
REMARK   15  A    between atoms: _38  and  _41
REMARK   16  A    between atoms: _41  and  _42
REMARK   17  A    between atoms: _42  and  _43
REMARK   18  A    between atoms: _43  and  _44
REMARK   19  A    between atoms: _44  and  _45
REMARK   20  A    between atoms: _49  and  _51
REMARK   21  A    between atoms: _51  and  _52
REMARK   22  A    between atoms: _51  and  _54
REMARK   23  A    between atoms: _57  and  _59
REMARK   24  A    between atoms: _59  and  _60
REMARK   25  A    between atoms: _59  and  _62
REMARK   26  A    between atoms: _62  and  _63
REMARK   27  A    between atoms: _69  and  _71
REMARK   28  A    between atoms: _71  and  _72
REMARK   29  A    between atoms: _71  and  _74
REMARK   30  A    between atoms: _74  and  _75
REMARK   31  A    between atoms: _78  and  _80
REMARK   32  A    between atoms: _80  and  _81
REMARK   33  A    between atoms: _84  and  _86
REMARK   34  A    between atoms: _86  and  _87
REMARK   35  A    between atoms: _86  and  _89
REMARK   36  A    between atoms: _92  and  _94
REMARK   37  A    between atoms: _94  and  _95
REMARK   38  A    between atoms: _98  and  _100
REMARK   39  A    between atoms: _100  and  _101
REMARK   40  A    between atoms: _100  and  _103
REMARK   41  A    between atoms: _106  and  _108
REMARK   42  A    between atoms: _108  and  _109
REMARK   43  A    between atoms: _108  and  _111
REMARK   44  A    between atoms: _111  and  _112
REMARK   45  A    between atoms: _112  and  _113
REMARK   46  A    between atoms: _113  and  _114
REMARK   47  A    between atoms: _114  and  _115
REMARK   48  A    between atoms: _119  and  _121
REMARK   49  A    between atoms: _121  and  _122
REMARK   50  A    between atoms: _125  and  _127
REMARK   51  A    between atoms: _127  and  _128
REMARK   52  A    between atoms: _127  and  _130
REMARK   53  A    between atoms: _130  and  _131
REMARK   54  A    between atoms: _134  and  _136
REMARK   55  A    between atoms: _136  and  _137
REMARK   56  A    between atoms: _136  and  _139
REMARK   57  A    between atoms: _139  and  _140
REMARK   58  A    between atoms: _146  and  _148
REMARK   59  A    between atoms: _148  and  _149
REMARK   60  A    between atoms: _148  and  _151
REMARK   61  A    between atoms: _151  and  _152
REMARK   62  A    between atoms: _152  and  _153
REMARK   63  A    between atoms: _153  and  _154
REMARK   64  A    between atoms: _163  and  _165
REMARK   65  A    between atoms: _165  and  _166
REMARK   66  A    between atoms: _165  and  _168
REMARK   67  A    between atoms: _168  and  _169
REMARK   68  A    between atoms: _169  and  _170
REMARK   69  A    between atoms: _173  and  _175
REMARK   70  A    between atoms: _175  and  _176
REMARK   71  A    between atoms: _179  and  _181
REMARK   72  A    between atoms: _181  and  _182
REMARK   73  A    between atoms: _181  and  _184
REMARK   74  A    between atoms: _184  and  _185
REMARK   75  A    between atoms: _188  and  _190
REMARK   76  A    between atoms: _190  and  _191
REMARK   77  A    between atoms: _190  and  _193
REMARK   78  A    between atoms: _193  and  _194
REMARK   79  A    between atoms: _197  and  _199
REMARK   80  A    between atoms: _199  and  _200
REMARK   81  A    between atoms: _199  and  _202
REMARK   82  A    between atoms: _202  and  _203
REMARK   83  A    between atoms: _206  and  _208
REMARK   84  A    between atoms: _208  and  _209
REMARK   85  A    between atoms: _208  and  _211
REMARK   86  A    between atoms: _211  and  _212
REMARK   87  A    between atoms: _217  and  _219
REMARK   88  A    between atoms: _219  and  _220
REMARK   89  A    between atoms: _219  and  _222
REMARK   90  A    between atoms: _222  and  _223
REMARK   91  A    between atoms: _226  and  _228
REMARK   92  A    between atoms: _228  and  _229
REMARK   93  A    between atoms: _228  and  _231
REMARK   94  A    between atoms: _234  and  _236
REMARK   95  A    between atoms: _236  and  _237
REMARK   96  A    between atoms: _236  and  _239
REMARK   97  A    between atoms: _239  and  _240
REMARK   98  A    between atoms: _240  and  _241
REMARK   99  A    between atoms: _241  and  _242
REMARK  100  A    between atoms: _251  and  _253
REMARK  101  A    between atoms: _253  and  _254
REMARK  102  A    between atoms: _253  and  _256
REMARK  103  A    between atoms: _256  and  _257
REMARK  104  A    between atoms: _263  and  _265
REMARK  105  A    between atoms: _265  and  _266
REMARK  106  A    between atoms: _265  and  _268
REMARK  107  A    between atoms: _268  and  _269
REMARK  108  A    between atoms: _269  and  _270
REMARK  109  A    between atoms: _272  and  _274
REMARK  110  A    between atoms: _274  and  _275
REMARK  111  A    between atoms: _274  and  _277
REMARK  112  A    between atoms: _280  and  _282
REMARK  113  A    between atoms: _282  and  _283
REMARK  114  A    between atoms: _282  and  _285
REMARK  115  A    between atoms: _285  and  _286
REMARK  116  A    between atoms: _292  and  _294
REMARK  117  A    between atoms: _294  and  _295
REMARK  118  A    between atoms: _294  and  _297
REMARK  119  A    between atoms: _297  and  _298
REMARK  120  A    between atoms: _298  and  _299
REMARK  121  A    between atoms: _302  and  _304
REMARK  122  A    between atoms: _304  and  _305
REMARK  123  A    between atoms: _304  and  _307
REMARK  124  A    between atoms: _307  and  _308
REMARK  125  A    between atoms: _313  and  _314
REMARK  126  A    between atoms: _316  and  _318
REMARK  127  A    between atoms: _318  and  _319
REMARK  128  A    between atoms: _318  and  _321
REMARK  129  A    between atoms: _321  and  _322
REMARK  130  A    between atoms: _322  and  _323
REMARK  131  A    between atoms: _325  and  _327
REMARK  132  A    between atoms: _327  and  _328
REMARK  133  A    between atoms: _327  and  _330
REMARK  134  A    between atoms: _330  and  _331
REMARK  135  A    between atoms: _331  and  _332
REMARK  136  A    between atoms: _332  and  _333
REMARK  137  A    between atoms: _342  and  _344
REMARK  138  A    between atoms: _344  and  _345
REMARK  139  A    between atoms: _344  and  _347
REMARK  140  A    between atoms: _347  and  _348
REMARK  141  A    between atoms: _353  and  _355
REMARK  142  A    between atoms: _355  and  _356
REMARK  143  A    between atoms: _358  and  _360
REMARK  144  A    between atoms: _360  and  _361
REMARK  145  A    between atoms: _360  and  _363
REMARK  146  A    between atoms: _363  and  _364
REMARK  147  A    between atoms: _367  and  _369
REMARK  148  A    between atoms: _369  and  _370
REMARK  149  A    between atoms: _369  and  _372
REMARK  150  A    between atoms: _372  and  _373
REMARK  151  A    between atoms: _376  and  _378
REMARK  152  A    between atoms: _378  and  _379
REMARK  153  A    between atoms: _381  and  _383
REMARK  154  A    between atoms: _383  and  _384
REMARK  155  A    between atoms: _383  and  _386
REMARK  156  A    between atoms: _386  and  _387
REMARK  157  A    between atoms: _387  and  _388
REMARK  158  A    between atoms: _390  and  _392
REMARK  159  A    between atoms: _392  and  _393
REMARK  160  A    between atoms: _392  and  _395
REMARK  161  A    between atoms: _395  and  _396
REMARK  162  A    between atoms: _401  and  _402
REMARK  163  A    between atoms: _404  and  _406
REMARK  164  A    between atoms: _406  and  _407
REMARK  165  A    between atoms: _406  and  _409
REMARK  166  A    between atoms: _409  and  _410
REMARK  167  A    between atoms: _413  and  _415
REMARK  168  A    between atoms: _415  and  _416
REMARK  169  A    between atoms: _415  and  _418
REMARK  170  A    between atoms: _418  and  _419
REMARK  171  A    between atoms: _425  and  _427
REMARK  172  A    between atoms: _427  and  _428
REMARK  173  A    between atoms: _427  and  _430
REMARK  174  A    between atoms: _433  and  _435
REMARK  175  A    between atoms: _435  and  _436
REMARK  176  A    between atoms: _435  and  _438
REMARK  177  A    between atoms: _438  and  _439
REMARK  178  A    between atoms: _444  and  _446
REMARK  179  A    between atoms: _446  and  _447
REMARK  180  A    between atoms: _446  and  _449
REMARK  181  A    between atoms: _449  and  _450
REMARK  182  A    between atoms: _453  and  _455
REMARK  183  A    between atoms: _455  and  _456
REMARK  184  A    between atoms: _455  and  _458
REMARK  185  A    between atoms: _458  and  _459
REMARK  186  A    between atoms: _462  and  _464
REMARK  187  A    between atoms: _464  and  _465
REMARK  188  A    between atoms: _464  and  _467
REMARK  189  A    between atoms: _467  and  _468
REMARK  190  A    between atoms: _468  and  _469
REMARK  191  A    between atoms: _469  and  _470
REMARK  192  A    between atoms: _479  and  _481
REMARK  193  A    between atoms: _481  and  _482
REMARK  194  A    between atoms: _481  and  _484
REMARK  195  A    between atoms: _484  and  _485
REMARK  196  A    between atoms: _490  and  _492
REMARK  197  A    between atoms: _492  and  _493
REMARK  198  A    between atoms: _492  and  _495
REMARK  199  A    between atoms: _497  and  _499
REMARK  200  A    between atoms: _499  and  _500
REMARK  201  A    between atoms: _499  and  _502
REMARK  202  A    between atoms: _502  and  _503
REMARK  203  A    between atoms: _506  and  _508
REMARK  204  A    between atoms: _508  and  _509
REMARK  205  A    between atoms: _508  and  _511
REMARK  206  A    between atoms: _514  and  _516
REMARK  207  A    between atoms: _516  and  _517
REMARK  208  A    between atoms: _519  and  _521
REMARK  209  A    between atoms: _521  and  _522
REMARK  210  A    between atoms: _521  and  _524
REMARK  211  A    between atoms: _524  and  _525
REMARK  212  A    between atoms: _525  and  _526
REMARK  213  A    between atoms: _526  and  _527
REMARK  214  A    between atoms: _527  and  _528
REMARK  215  A    between atoms: _532  and  _534
REMARK  216  A    between atoms: _534  and  _535
REMARK  217  A    between atoms: _534  and  _537
REMARK  218  A    between atoms: _537  and  _538
REMARK  219  A    between atoms: _541  and  _543
REMARK  220  A    between atoms: _543  and  _544
REMARK  221  A    between atoms: _546  and  _548
REMARK  222  A    between atoms: _548  and  _549
REMARK  223  A    between atoms: _548  and  _551
REMARK  224  A    between atoms: _551  and  _552
REMARK  225  A    between atoms: _555  and  _557
REMARK  226  A    between atoms: _557  and  _558
REMARK  227  A    between atoms: _557  and  _560
REMARK  228  A    between atoms: _560  and  _561
REMARK  229  A    between atoms: _567  and  _569
REMARK  230  A    between atoms: _569  and  _570
REMARK  231  A    between atoms: _572  and  _574
REMARK  232  A    between atoms: _574  and  _575
REMARK  233  A    between atoms: _574  and  _577
REMARK  234  A    between atoms: _577  and  _578
REMARK  235  A    between atoms: _578  and  _579
REMARK  236  A    between atoms: _581  and  _583
REMARK  237  A    between atoms: _583  and  _584
REMARK  238  A    between atoms: _583  and  _586
REMARK  239  A    between atoms: _586  and  _587
REMARK  240  A    between atoms: _589  and  _591
REMARK  241  A    between atoms: _591  and  _592
REMARK  242  A    between atoms: _591  and  _594
REMARK  243  A    between atoms: _594  and  _595
REMARK  244  A    between atoms: _598  and  _600
REMARK  245  A    between atoms: _600  and  _601
REMARK  246  A    between atoms: _600  and  _603
REMARK  247  A    between atoms: _603  and  _604
REMARK  248  A    between atoms: _609  and  _610
REMARK                            x       y       z     vdW  Elec       q    Type
REMARK                         _______ _______ _______ _____ _____    ______ ____
ROOT
ATOM      1  C   ASP A   1      35.064 -21.772 -11.463  0.00  0.00    +0.239 C 
ATOM      2  N   LEU A   2      35.881 -20.948 -10.785  0.00  0.00    -0.298 N 
ATOM      3  H   LEU A   2      36.581 -20.375 -11.299  0.00  0.00    +0.150 HD
ATOM      4  O   ASP A   1      34.227 -22.491 -10.903  0.00  0.00    -0.274 OA
ENDROOT
BRANCH   1   5
ATOM      5  CA  ASP A   1      35.230 -21.789 -12.984  0.00  0.00    +0.156 C 
BRANCH   5   6
ATOM      6  N   ASP A   1      36.649 -21.800 -13.394  0.00  0.00    -0.238 NA
ATOM      7  H   ASP A   1      37.340 -22.354 -12.849  0.00  0.00    +0.142 HD
ENDBRANCH   5   6
BRANCH   5   8
ATOM      8  CB  ASP A   1      34.454 -22.973 -13.619  0.00  0.00    +0.140 C 
BRANCH   8   9
ATOM      9  CG  ASP A   1      32.925 -22.868 -13.544  0.00  0.00    +0.367 C 
ATOM     10  OD2 ASP A   1      32.397 -21.752 -13.247  0.00  0.00    -0.246 OA
ATOM     11  OD1 ASP A   1      32.267 -23.874 -13.757  0.00  0.00    -0.246 OA
ENDBRANCH   8   9
ENDBRANCH   5   8
ENDBRANCH   1   5
BRANCH   2  12
ATOM     12  CA  LEU A   2      35.792 -20.853  -9.336  0.00  0.00    +0.137 C 
BRANCH  12  13
ATOM     13  C   LEU A   2      34.492 -20.127  -8.988  0.00  0.00    +0.227 C 
ATOM     14  O   LEU A   2      34.226 -19.042  -9.516  0.00  0.00    -0.286 OA
ENDBRANCH  12  13
BRANCH  12  15
ATOM     15  CB  LEU A   2      37.018 -20.128  -8.745  0.00  0.00    +0.028 C 
BRANCH  15  16
ATOM     16  CG  LEU A   2      36.954 -19.922  -7.225  0.00  0.00    +0.002 C 
ATOM     17  CD2 LEU A   2      37.036 -21.272  -6.467  0.00  0.00    +0.000 C 
ATOM     18  CD1 LEU A   2      38.035 -18.966  -6.758  0.00  0.00    +0.000 C 
ENDBRANCH  15  16
ENDBRANCH  12  15
ENDBRANCH   2  12
TORSDOF 8
REMARK  Name = ../refined-set-2016/4pmm/4pmm_pocket.pdb
REMARK  248 active torsions:
REMARK  status: ('A' for Active; 'I' for Inactive)
REMARK    1  A    between atoms: _1  and  _3
REMARK    2  A    between atoms: _3  and  _4
REMARK    3  A    between atoms: _3  and  _6
REMARK    4  A    between atoms: _6  and  _7
REMARK    5  A    between atoms: _17  and  _19
REMARK    6  A    between atoms: _19  and  _20
REMARK    7  A    between atoms: _19  and  _22
REMARK    8  A    between atoms: _22  and  _23
REMARK    9  A    between atoms: _26  and  _28
REMARK   10  A    between atoms: _28  and  _29
REMARK   11  A    between atoms: _31  and  _33
REMARK   12  A    between atoms: _33  and  _34
REMARK   13  A    between atoms: _36  and  _38
REMARK   14  A    between atoms: _38  and  _39
REMARK   15  A    between atoms: _38  and  _41
REMARK   16  A    between atoms: _41  and  _42
REMARK   17  A    between atoms: _42  and  _43
REMARK   18  A    between atoms: _43  and  _44
REMARK   19  A    between atoms: _44  and  _45
REMARK   20  A    between atoms: _49  and  _51
REMARK   21  A    between atoms: _51  and  _52
REMARK   22  A    between atoms: _51  and  _54
REMARK   23  A    between atoms: _57  and  _59
REMARK   24  A    between atoms: _59  and  _60
REMARK   25  A    between atoms: _59  and  _62
REMARK   26  A    between atoms: _62  and  _63
REMARK   27  A    between atoms: _69  and  _71
REMARK   28  A    between atoms: _71  and  _72
REMARK   29  A    between atoms: _71  and  _74
REMARK   30  A    between atoms: _74  and  _75
REMARK   31  A    between atoms: _78  and  _80
REMARK   32  A    between atoms: _80  and  _81
REMARK   33  A    between atoms: _84  and  _86
REMARK   34  A    between atoms: _86  and  _87
REMARK   35  A    between atoms: _86  and  _89
REMARK   36  A    between atoms: _92  and  _94
REMARK   37  A    between atoms: _94  and  _95
REMARK   38  A    between atoms: _98  and  _100
REMARK   39  A    between atoms: _100  and  _101
REMARK   40  A    between atoms: _100  and  _103
REMARK   41  A    between atoms: _106  and  _108
REMARK   42  A    between atoms: _108  and  _109
REMARK   43  A    between atoms: _108  and  _111
REMARK   44  A    between atoms: _111  and  _112
REMARK   45  A    between atoms: _112  and  _113
REMARK   46  A    between atoms: _113  and  _114
REMARK   47  A    between atoms: _114  and  _115
REMARK   48  A    between atoms: _119  and  _121
REMARK   49  A    between atoms: _121  and  _122
REMARK   50  A    between atoms: _125  and  _127
REMARK   51  A    between atoms: _127  and  _128
REMARK   52  A    between atoms: _127  and  _130
REMARK   53  A    between atoms: _130  and  _131
REMARK   54  A    between atoms: _134  and  _136
REMARK   55  A    between atoms: _136  and  _137
REMARK   56  A    between atoms: _136  and  _139
REMARK   57  A    between atoms: _139  and  _140
REMARK   58  A    between atoms: _146  and  _148
REMARK   59  A    between atoms: _148  and  _149
REMARK   60  A    between atoms: _148  and  _151
REMARK   61  A    between atoms: _151  and  _152
REMARK   62  A    between atoms: _152  and  _153
REMARK   63  A    between atoms: _153  and  _154
REMARK   64  A    between atoms: _163  and  _165
REMARK   65  A    between atoms: _165  and  _166
REMARK   66  A    between atoms: _165  and  _168
REMARK   67  A    between atoms: _168  and  _169
REMARK   68  A    between atoms: _169  and  _170
REMARK   69  A    between atoms: _173  and  _175
REMARK   70  A    between atoms: _175  and  _176
REMARK   71  A    between atoms: _179  and  _181
REMARK   72  A    between atoms: _181  and  _182
REMARK   73  A    between atoms: _181  and  _184
REMARK   74  A    between atoms: _184  and  _185
REMARK   75  A    between atoms: _188  and  _190
REMARK   76  A    between atoms: _190  and  _191
REMARK   77  A    between atoms: _190  and  _193
REMARK   78  A    between atoms: _193  and  _194
REMARK   79  A    between atoms: _197  and  _199
REMARK   80  A    between atoms: _199  and  _200
REMARK   81  A    between atoms: _199  and  _202
REMARK   82  A    between atoms: _202  and  _203
REMARK   83  A    between atoms: _206  and  _208
REMARK   84  A    between atoms: _208  and  _209
REMARK   85  A    between atoms: _208  and  _211
REMARK   86  A    between atoms: _211  and  _212
REMARK   87  A    between atoms: _217  and  _219
REMARK   88  A    between atoms: _219  and  _220
REMARK   89  A    between atoms: _219  and  _222
REMARK   90  A    between atoms: _222  and  _223
REMARK   91  A    between atoms: _226  and  _228
REMARK   92  A    between atoms: _228  and  _229
REMARK   93  A    between atoms: _228  and  _231
REMARK   94  A    between atoms: _234  and  _236
REMARK   95  A    between atoms: _236  and  _237
REMARK   96  A    between atoms: _236  and  _239
REMARK   97  A    between atoms: _239  and  _240
REMARK   98  A    between atoms: _240  and  _241
REMARK   99  A    between atoms: _241  and  _242
REMARK  100  A    between atoms: _251  and  _253
REMARK  101  A    between atoms: _253  and  _254
REMARK  102  A    between atoms: _253  and  _256
REMARK  103  A    between atoms: _256  and  _257
REMARK  104  A    between atoms: _263  and  _265
REMARK  105  A    between atoms: _265  and  _266
REMARK  106  A    between atoms: _265  and  _268
REMARK  107  A    between atoms: _268  and  _269
REMARK  108  A    between atoms: _269  and  _270
REMARK  109  A    between atoms: _272  and  _274
REMARK  110  A    between atoms: _274  and  _275
REMARK  111  A    between atoms: _274  and  _277
REMARK  112  A    between atoms: _280  and  _282
REMARK  113  A    between atoms: _282  and  _283
REMARK  114  A    between atoms: _282  and  _285
REMARK  115  A    between atoms: _285  and  _286
REMARK  116  A    between atoms: _292  and  _294
REMARK  117  A    between atoms: _294  and  _295
REMARK  118  A    between atoms: _294  and  _297
REMARK  119  A    between atoms: _297  and  _298
REMARK  120  A    between atoms: _298  and  _299
REMARK  121  A    between atoms: _302  and  _304
REMARK  122  A    between atoms: _304  and  _305
REMARK  123  A    between atoms: _304  and  _307
REMARK  124  A    between atoms: _307  and  _308
REMARK  125  A    between atoms: _313  and  _314
REMARK  126  A    between atoms: _316  and  _318
REMARK  127  A    between atoms: _318  and  _319
REMARK  128  A    between atoms: _318  and  _321
REMARK  129  A    between atoms: _321  and  _322
REMARK  130  A    between atoms: _322  and  _323
REMARK  131  A    between atoms: _325  and  _327
REMARK  132  A    between atoms: _327  and  _328
REMARK  133  A    between atoms: _327  and  _330
REMARK  134  A    between atoms: _330  and  _331
REMARK  135  A    between atoms: _331  and  _332
REMARK  136  A    between atoms: _332  and  _333
REMARK  137  A    between atoms: _342  and  _344
REMARK  138  A    between atoms: _344  and  _345
REMARK  139  A    between atoms: _344  and  _347
REMARK  140  A    between atoms: _347  and  _348
REMARK  141  A    between atoms: _353  and  _355
REMARK  142  A    between atoms: _355  and  _356
REMARK  143  A    between atoms: _358  and  _360
REMARK  144  A    between atoms: _360  and  _361
REMARK  145  A    between atoms: _360  and  _363
REMARK  146  A    between atoms: _363  and  _364
REMARK  147  A    between atoms: _367  and  _369
REMARK  148  A    between atoms: _369  and  _370
REMARK  149  A    between atoms: _369  and  _372
REMARK  150  A    between atoms: _372  and  _373
REMARK  151  A    between atoms: _376  and  _378
REMARK  152  A    between atoms: _378  and  _379
REMARK  153  A    between atoms: _381  and  _383
REMARK  154  A    between atoms: _383  and  _384
REMARK  155  A    between atoms: _383  and  _386
REMARK  156  A    between atoms: _386  and  _387
REMARK  157  A    between atoms: _387  and  _388
REMARK  158  A    between atoms: _390  and  _392
REMARK  159  A    between atoms: _392  and  _393
REMARK  160  A    between atoms: _392  and  _395
REMARK  161  A    between atoms: _395  and  _396
REMARK  162  A    between atoms: _401  and  _402
REMARK  163  A    between atoms: _404  and  _406
REMARK  164  A    between atoms: _406  and  _407
REMARK  165  A    between atoms: _406  and  _409
REMARK  166  A    between atoms: _409  and  _410
REMARK  167  A    between atoms: _413  and  _415
REMARK  168  A    between atoms: _415  and  _416
REMARK  169  A    between atoms: _415  and  _418
REMARK  170  A    between atoms: _418  and  _419
REMARK  171  A    between atoms: _425  and  _427
REMARK  172  A    between atoms: _427  and  _428
REMARK  173  A    between atoms: _427  and  _430
REMARK  174  A    between atoms: _433  and  _435
REMARK  175  A    between atoms: _435  and  _436
REMARK  176  A    between atoms: _435  and  _438
REMARK  177  A    between atoms: _438  and  _439
REMARK  178  A    between atoms: _444  and  _446
REMARK  179  A    between atoms: _446  and  _447
REMARK  180  A    between atoms: _446  and  _449
REMARK  181  A    between atoms: _449  and  _450
REMARK  182  A    between atoms: _453  and  _455
REMARK  183  A    between atoms: _455  and  _456
REMARK  184  A    between atoms: _455  and  _458
REMARK  185  A    between atoms: _458  and  _459
REMARK  186  A    between atoms: _462  and  _464
REMARK  187  A    between atoms: _464  and  _465
REMARK  188  A    between atoms: _464  and  _467
REMARK  189  A    between atoms: _467  and  _468
REMARK  190  A    between atoms: _468  and  _469
REMARK  191  A    between atoms: _469  and  _470
REMARK  192  A    between atoms: _479  and  _481
REMARK  193  A    between atoms: _481  and  _482
REMARK  194  A    between atoms: _481  and  _484
REMARK  195  A    between atoms: _484  and  _485
REMARK  196  A    between atoms: _490  and  _492
REMARK  197  A    between atoms: _492  and  _493
REMARK  198  A    between atoms: _492  and  _495
REMARK  199  A    between atoms: _497  and  _499
REMARK  200  A    between atoms: _499  and  _500
REMARK  201  A    between atoms: _499  and  _502
REMARK  202  A    between atoms: _502  and  _503
REMARK  203  A    between atoms: _506  and  _508
REMARK  204  A    between atoms: _508  and  _509
REMARK  205  A    between atoms: _508  and  _511
REMARK  206  A    between atoms: _514  and  _516
REMARK  207  A    between atoms: _516  and  _517
REMARK  208  A    between atoms: _519  and  _521
REMARK  209  A    between atoms: _521  and  _522
REMARK  210  A    between atoms: _521  and  _524
REMARK  211  A    between atoms: _524  and  _525
REMARK  212  A    between atoms: _525  and  _526
REMARK  213  A    between atoms: _526  and  _527
REMARK  214  A    between atoms: _527  and  _528
REMARK  215  A    between atoms: _532  and  _534
REMARK  216  A    between atoms: _534  and  _535
REMARK  217  A    between atoms: _534  and  _537
REMARK  218  A    between atoms: _537  and  _538
REMARK  219  A    between atoms: _541  and  _543
REMARK  220  A    between atoms: _543  and  _544
REMARK  221  A    between atoms: _546  and  _548
REMARK  222  A    between atoms: _548  and  _549
REMARK  223  A    between atoms: _548  and  _551
REMARK  224  A    between atoms: _551  and  _552
REMARK  225  A    between atoms: _555  and  _557
REMARK  226  A    between atoms: _557  and  _558
REMARK  227  A    between atoms: _557  and  _560
REMARK  228  A    between atoms: _560  and  _561
REMARK  229  A    between atoms: _567  and  _569
REMARK  230  A    between atoms: _569  and  _570
REMARK  231  A    between atoms: _572  and  _574
REMARK  232  A    between atoms: _574  and  _575
REMARK  233  A    between atoms: _574  and  _577
REMARK  234  A    between atoms: _577  and  _578
REMARK  235  A    between atoms: _578  and  _579
REMARK  236  A    between atoms: _581  and  _583
REMARK  237  A    between atoms: _583  and  _584
REMARK  238  A    between atoms: _583  and  _586
REMARK  239  A    between atoms: _586  and  _587
REMARK  240  A    between atoms: _589  and  _591
REMARK  241  A    between atoms: _591  and  _592
REMARK  242  A    between atoms: _591  and  _594
REMARK  243  A    between atoms: _594  and  _595
REMARK  244  A    between atoms: _598  and  _600
REMARK  245  A    between atoms: _600  and  _601
REMARK  246  A    between atoms: _600  and  _603
REMARK  247  A    between atoms: _603  and  _604
REMARK  248  A    between atoms: _609  and  _610
REMARK                            x       y       z     vdW  Elec       q    Type
REMARK                         _______ _______ _______ _____ _____    ______ ____
ROOT
ATOM      1  C   ASN A   2      32.952 -25.931  -5.979  0.00  0.00    +0.241 C 
ATOM      2  N   CYS A   3      32.397 -25.598  -4.800  0.00  0.00    -0.296 N 
ATOM      3  H   CYS A   3      31.493 -25.084  -4.794  0.00  0.00    +0.150 HD
ATOM      4  O   ASN A   2      34.045 -26.478  -6.067  0.00  0.00    -0.273 OA
ENDROOT
BRANCH   1   5
ATOM      5  CA  ASN A   2      32.148 -25.613  -7.245  0.00  0.00    +0.158 C 
BRANCH   5   8
ATOM      6  C   ARG A   1      29.775 -25.098  -6.803  0.00  0.00    +0.238 C 
ATOM      7  O   ARG A   1      29.466 -26.283  -6.816  0.00  0.00    -0.274 OA
ATOM      8  N   ASN A   2      31.043 -24.686  -6.998  0.00  0.00    -0.297 N 
ATOM      9  H   ASN A   2      31.245 -23.666  -6.972  0.00  0.00    +0.150 HD
BRANCH   6  10
ATOM     10  CA  ARG A   1      28.684 -24.011  -6.544  0.00  0.00    +0.145 C 
BRANCH  10  11
ATOM     11  N   ARG A   1      29.319 -22.766  -6.075  0.00  0.00    -0.238 NA
ATOM     12  H   ARG A   1      29.242 -21.902  -6.648  0.00  0.00    +0.142 HD
ENDBRANCH  10  11
BRANCH  10  13
ATOM     13  CB  ARG A   1      27.822 -23.773  -7.799  0.00  0.00    +0.030 C 
BRANCH  13  14
ATOM     14  CG  ARG A   1      28.674 -23.419  -9.048  0.00  0.00    +0.045 C 
BRANCH  14  15
ATOM     15  CD  ARG A   1      27.867 -23.075 -10.300  0.00  0.00    +0.174 C 
BRANCH  15  16
ATOM     16  NE  ARG A   1      28.776 -22.470 -11.280  0.00  0.00    -0.265 N 
ATOM     17  CZ  ARG A   1      29.031 -21.169 -11.347  0.00  0.00    +0.342 C 
ATOM     18  NH2 ARG A   1      28.417 -20.322 -10.532  0.00  0.00    -0.292 N 
ATOM     19 HH21 ARG A   1      27.731 -20.676  -9.835  0.00  0.00    +0.255 HD
ATOM     20 HH22 ARG A   1      28.621 -19.304 -10.590  0.00  0.00    +0.255 HD
ATOM     21  NH1 ARG A   1      29.908 -20.704 -12.225  0.00  0.00    -0.292 N 
ATOM     22 HH11 ARG A   1      30.104 -19.684 -12.274  0.00  0.00    +0.255 HD
ATOM     23 HH12 ARG A   1      30.400 -21.359 -12.865  0.00  0.00    +0.255 HD
ATOM     24  HE  ARG A   1      29.248 -23.097 -11.962  0.00  0.00    +0.259 HD
ENDBRANCH  15  16
ENDBRANCH  14  15
ENDBRANCH  13  14
ENDBRANCH  10  13
ENDBRANCH   6  10
ENDBRANCH   5   8
BRANCH   5  25
ATOM     25  CB  ASN A   2      33.033 -25.136  -8.413  0.00  0.00    +0.114 C 
BRANCH  25  26
ATOM     26  CG  ASN A   2      32.432 -25.556  -9.738  0.00  0.00    +0.222 C 
ATOM     27  OD1 ASN A   2      31.851 -26.630  -9.857  0.00  0.00    -0.275 OA
ATOM     28  ND2 ASN A   2      32.550 -24.738 -10.759  0.00  0.00    -0.329 N 
ATOM     29 HD21 ASN A   2      33.045 -23.831 -10.644  0.00  0.00    +0.145 HD
ATOM     30 HD22 ASN A   2      32.148 -24.998 -11.682  0.00  0.00    +0.145 HD
ENDBRANCH  25  26
ENDBRANCH   5  25
ENDBRANCH   1   5
BRANCH   2  31
ATOM     31  CA  CYS A   3      33.029 -25.939  -3.528  0.00  0.00    +0.160 C 
BRANCH  31  32
ATOM     32  C   CYS A   3      32.074 -26.861  -2.770  0.00  0.00    +0.242 C 
ATOM     33  N   LEU A   4      32.631 -27.709  -1.906  0.00  0.00    -0.297 N 
ATOM     34  H   LEU A   4      33.667 -27.728  -1.818  0.00  0.00    +0.150 HD
ATOM     35  O   CYS A   3      30.859 -26.770  -2.955  0.00  0.00    -0.273 OA
BRANCH  33  36
ATOM     36  CA  LEU A   4      31.833 -28.616  -1.076  0.00  0.00    +0.149 C 
BRANCH  36  37
ATOM     37  C   LEU A   4      32.079 -28.325   0.383  0.00  0.00    +0.241 C 
ATOM     38  N   VAL A   5      31.071 -28.609   1.237  0.00  0.00    -0.297 N 
ATOM     39  H   VAL A   5      30.185 -29.010   0.868  0.00  0.00    +0.150 HD
ATOM     40  O   LEU A   4      33.161 -27.869   0.744  0.00  0.00    -0.273 OA
BRANCH  38  41
ATOM     41  CA  VAL A   5      31.205 -28.363   2.667  0.00  0.00    +0.149 C 
BRANCH  41  42
ATOM     42  C   VAL A   5      31.002 -29.681   3.413  0.00  0.00    +0.241 C 
ATOM     43  N   GLY A   6      31.974 -30.041   4.230  0.00  0.00    -0.296 N 
ATOM     44  H   GLY A   6      32.815 -29.433   4.298  0.00  0.00    +0.150 HD
ATOM     45  O   VAL A   5      29.975 -30.324   3.237  0.00  0.00    -0.273 OA
BRANCH  43  46
ATOM     46  CA  GLY A   6      31.925 -31.251   5.041  0.00  0.00    +0.163 C 
BRANCH  46  47
ATOM     47  C   GLY A   6      31.601 -30.899   6.474  0.00  0.00    +0.229 C 
ATOM     48  O   GLY A   6      31.609 -29.721   6.837  0.00  0.00    -0.286 OA
ENDBRANCH  46  47
ENDBRANCH  43  46
ENDBRANCH  41  42
BRANCH  41  49
ATOM     49  CB  VAL A   5      30.212 -27.283   3.173  0.00  0.00    +0.027 C 
ATOM     50  CG2 VAL A   5      30.471 -26.954   4.653  0.00  0.00    +0.002 C 
ATOM     51  CG1 VAL A   5      30.275 -26.018   2.319  0.00  0.00    +0.002 C 
ENDBRANCH  41  49
ENDBRANCH  38  41
ENDBRANCH  36  37
BRANCH  36  52
ATOM     52  CB  LEU A   4      32.181 -30.096  -1.378  0.00  0.00    +0.029 C 
BRANCH  52  53
ATOM     53  CG  LEU A   4      31.764 -30.570  -2.775  0.00  0.00    +0.002 C 
ATOM     54  CD2 LEU A   4      30.252 -30.708  -2.887  0.00  0.00    +0.000 C 
ATOM     55  CD1 LEU A   4      32.439 -31.896  -3.116  0.00  0.00    +0.000 C 
ENDBRANCH  52  53
ENDBRANCH  36  52
ENDBRANCH  33  36
ENDBRANCH  31  32
BRANCH  31  56
ATOM     56  CB  CYS A   3      33.346 -24.694  -2.708  0.00  0.00    +0.098 C 
ATOM     57  SG  CYS A   3      34.462 -23.555  -3.552  0.00  0.00    -0.080 S 
ENDBRANCH  31  56
ENDBRANCH   2  31
TORSDOF 22
REMARK  Name = ../refined-set-2016/4pmm/4pmm_pocket.pdb
REMARK  248 active torsions:
REMARK  status: ('A' for Active; 'I' for Inactive)
REMARK    1  A    between atoms: _1  and  _3
REMARK    2  A    between atoms: _3  and  _4
REMARK    3  A    between atoms: _3  and  _6
REMARK    4  A    between atoms: _6  and  _7
REMARK    5  A    between atoms: _17  and  _19
REMARK    6  A    between atoms: _19  and  _20
REMARK    7  A    between atoms: _19  and  _22
REMARK    8  A    between atoms: _22  and  _23
REMARK    9  A    between atoms: _26  and  _28
REMARK   10  A    between atoms: _28  and  _29
REMARK   11  A    between atoms: _31  and  _33
REMARK   12  A    between atoms: _33  and  _34
REMARK   13  A    between atoms: _36  and  _38
REMARK   14  A    between atoms: _38  and  _39
REMARK   15  A    between atoms: _38  and  _41
REMARK   16  A    between atoms: _41  and  _42
REMARK   17  A    between atoms: _42  and  _43
REMARK   18  A    between atoms: _43  and  _44
REMARK   19  A    between atoms: _44  and  _45
REMARK   20  A    between atoms: _49  and  _51
REMARK   21  A    between atoms: _51  and  _52
REMARK   22  A    between atoms: _51  and  _54
REMARK   23  A    between atoms: _57  and  _59
REMARK   24  A    between atoms: _59  and  _60
REMARK   25  A    between atoms: _59  and  _62
REMARK   26  A    between atoms: _62  and  _63
REMARK   27  A    between atoms: _69  and  _71
REMARK   28  A    between atoms: _71  and  _72
REMARK   29  A    between atoms: _71  and  _74
REMARK   30  A    between atoms: _74  and  _75
REMARK   31  A    between atoms: _78  and  _80
REMARK   32  A    between atoms: _80  and  _81
REMARK   33  A    between atoms: _84  and  _86
REMARK   34  A    between atoms: _86  and  _87
REMARK   35  A    between atoms: _86  and  _89
REMARK   36  A    between atoms: _92  and  _94
REMARK   37  A    between atoms: _94  and  _95
REMARK   38  A    between atoms: _98  and  _100
REMARK   39  A    between atoms: _100  and  _101
REMARK   40  A    between atoms: _100  and  _103
REMARK   41  A    between atoms: _106  and  _108
REMARK   42  A    between atoms: _108  and  _109
REMARK   43  A    between atoms: _108  and  _111
REMARK   44  A    between atoms: _111  and  _112
REMARK   45  A    between atoms: _112  and  _113
REMARK   46  A    between atoms: _113  and  _114
REMARK   47  A    between atoms: _114  and  _115
REMARK   48  A    between atoms: _119  and  _121
REMARK   49  A    between atoms: _121  and  _122
REMARK   50  A    between atoms: _125  and  _127
REMARK   51  A    between atoms: _127  and  _128
REMARK   52  A    between atoms: _127  and  _130
REMARK   53  A    between atoms: _130  and  _131
REMARK   54  A    between atoms: _134  and  _136
REMARK   55  A    between atoms: _136  and  _137
REMARK   56  A    between atoms: _136  and  _139
REMARK   57  A    between atoms: _139  and  _140
REMARK   58  A    between atoms: _146  and  _148
REMARK   59  A    between atoms: _148  and  _149
REMARK   60  A    between atoms: _148  and  _151
REMARK   61  A    between atoms: _151  and  _152
REMARK   62  A    between atoms: _152  and  _153
REMARK   63  A    between atoms: _153  and  _154
REMARK   64  A    between atoms: _163  and  _165
REMARK   65  A    between atoms: _165  and  _166
REMARK   66  A    between atoms: _165  and  _168
REMARK   67  A    between atoms: _168  and  _169
REMARK   68  A    between atoms: _169  and  _170
REMARK   69  A    between atoms: _173  and  _175
REMARK   70  A    between atoms: _175  and  _176
REMARK   71  A    between atoms: _179  and  _181
REMARK   72  A    between atoms: _181  and  _182
REMARK   73  A    between atoms: _181  and  _184
REMARK   74  A    between atoms: _184  and  _185
REMARK   75  A    between atoms: _188  and  _190
REMARK   76  A    between atoms: _190  and  _191
REMARK   77  A    between atoms: _190  and  _193
REMARK   78  A    between atoms: _193  and  _194
REMARK   79  A    between atoms: _197  and  _199
REMARK   80  A    between atoms: _199  and  _200
REMARK   81  A    between atoms: _199  and  _202
REMARK   82  A    between atoms: _202  and  _203
REMARK   83  A    between atoms: _206  and  _208
REMARK   84  A    between atoms: _208  and  _209
REMARK   85  A    between atoms: _208  and  _211
REMARK   86  A    between atoms: _211  and  _212
REMARK   87  A    between atoms: _217  and  _219
REMARK   88  A    between atoms: _219  and  _220
REMARK   89  A    between atoms: _219  and  _222
REMARK   90  A    between atoms: _222  and  _223
REMARK   91  A    between atoms: _226  and  _228
REMARK   92  A    between atoms: _228  and  _229
REMARK   93  A    between atoms: _228  and  _231
REMARK   94  A    between atoms: _234  and  _236
REMARK   95  A    between atoms: _236  and  _237
REMARK   96  A    between atoms: _236  and  _239
REMARK   97  A    between atoms: _239  and  _240
REMARK   98  A    between atoms: _240  and  _241
REMARK   99  A    between atoms: _241  and  _242
REMARK  100  A    between atoms: _251  and  _253
REMARK  101  A    between atoms: _253  and  _254
REMARK  102  A    between atoms: _253  and  _256
REMARK  103  A    between atoms: _256  and  _257
REMARK  104  A    between atoms: _263  and  _265
REMARK  105  A    between atoms: _265  and  _266
REMARK  106  A    between atoms: _265  and  _268
REMARK  107  A    between atoms: _268  and  _269
REMARK  108  A    between atoms: _269  and  _270
REMARK  109  A    between atoms: _272  and  _274
REMARK  110  A    between atoms: _274  and  _275
REMARK  111  A    between atoms: _274  and  _277
REMARK  112  A    between atoms: _280  and  _282
REMARK  113  A    between atoms: _282  and  _283
REMARK  114  A    between atoms: _282  and  _285
REMARK  115  A    between atoms: _285  and  _286
REMARK  116  A    between atoms: _292  and  _294
REMARK  117  A    between atoms: _294  and  _295
REMARK  118  A    between atoms: _294  and  _297
REMARK  119  A    between atoms: _297  and  _298
REMARK  120  A    between atoms: _298  and  _299
REMARK  121  A    between atoms: _302  and  _304
REMARK  122  A    between atoms: _304  and  _305
REMARK  123  A    between atoms: _304  and  _307
REMARK  124  A    between atoms: _307  and  _308
REMARK  125  A    between atoms: _313  and  _314
REMARK  126  A    between atoms: _316  and  _318
REMARK  127  A    between atoms: _318  and  _319
REMARK  128  A    between atoms: _318  and  _321
REMARK  129  A    between atoms: _321  and  _322
REMARK  130  A    between atoms: _322  and  _323
REMARK  131  A    between atoms: _325  and  _327
REMARK  132  A    between atoms: _327  and  _328
REMARK  133  A    between atoms: _327  and  _330
REMARK  134  A    between atoms: _330  and  _331
REMARK  135  A    between atoms: _331  and  _332
REMARK  136  A    between atoms: _332  and  _333
REMARK  137  A    between atoms: _342  and  _344
REMARK  138  A    between atoms: _344  and  _345
REMARK  139  A    between atoms: _344  and  _347
REMARK  140  A    between atoms: _347  and  _348
REMARK  141  A    between atoms: _353  and  _355
REMARK  142  A    between atoms: _355  and  _356
REMARK  143  A    between atoms: _358  and  _360
REMARK  144  A    between atoms: _360  and  _361
REMARK  145  A    between atoms: _360  and  _363
REMARK  146  A    between atoms: _363  and  _364
REMARK  147  A    between atoms: _367  and  _369
REMARK  148  A    between atoms: _369  and  _370
REMARK  149  A    between atoms: _369  and  _372
REMARK  150  A    between atoms: _372  and  _373
REMARK  151  A    between atoms: _376  and  _378
REMARK  152  A    between atoms: _378  and  _379
REMARK  153  A    between atoms: _381  and  _383
REMARK  154  A    between atoms: _383  and  _384
REMARK  155  A    between atoms: _383  and  _386
REMARK  156  A    between atoms: _386  and  _387
REMARK  157  A    between atoms: _387  and  _388
REMARK  158  A    between atoms: _390  and  _392
REMARK  159  A    between atoms: _392  and  _393
REMARK  160  A    between atoms: _392  and  _395
REMARK  161  A    between atoms: _395  and  _396
REMARK  162  A    between atoms: _401  and  _402
REMARK  163  A    between atoms: _404  and  _406
REMARK  164  A    between atoms: _406  and  _407
REMARK  165  A    between atoms: _406  and  _409
REMARK  166  A    between atoms: _409  and  _410
REMARK  167  A    between atoms: _413  and  _415
REMARK  168  A    between atoms: _415  and  _416
REMARK  169  A    between atoms: _415  and  _418
REMARK  170  A    between atoms: _418  and  _419
REMARK  171  A    between atoms: _425  and  _427
REMARK  172  A    between atoms: _427  and  _428
REMARK  173  A    between atoms: _427  and  _430
REMARK  174  A    between atoms: _433  and  _435
REMARK  175  A    between atoms: _435  and  _436
REMARK  176  A    between atoms: _435  and  _438
REMARK  177  A    between atoms: _438  and  _439
REMARK  178  A    between atoms: _444  and  _446
REMARK  179  A    between atoms: _446  and  _447
REMARK  180  A    between atoms: _446  and  _449
REMARK  181  A    between atoms: _449  and  _450
REMARK  182  A    between atoms: _453  and  _455
REMARK  183  A    between atoms: _455  and  _456
REMARK  184  A    between atoms: _455  and  _458
REMARK  185  A    between atoms: _458  and  _459
REMARK  186  A    between atoms: _462  and  _464
REMARK  187  A    between atoms: _464  and  _465
REMARK  188  A    between atoms: _464  and  _467
REMARK  189  A    between atoms: _467  and  _468
REMARK  190  A    between atoms: _468  and  _469
REMARK  191  A    between atoms: _469  and  _470
REMARK  192  A    between atoms: _479  and  _481
REMARK  193  A    between atoms: _481  and  _482
REMARK  194  A    between atoms: _481  and  _484
REMARK  195  A    between atoms: _484  and  _485
REMARK  196  A    between atoms: _490  and  _492
REMARK  197  A    between atoms: _492  and  _493
REMARK  198  A    between atoms: _492  and  _495
REMARK  199  A    between atoms: _497  and  _499
REMARK  200  A    between atoms: _499  and  _500
REMARK  201  A    between atoms: _499  and  _502
REMARK  202  A    between atoms: _502  and  _503
REMARK  203  A    between atoms: _506  and  _508
REMARK  204  A    between atoms: _508  and  _509
REMARK  205  A    between atoms: _508  and  _511
REMARK  206  A    between atoms: _514  and  _516
REMARK  207  A    between atoms: _516  and  _517
REMARK  208  A    between atoms: _519  and  _521
REMARK  209  A    between atoms: _521  and  _522
REMARK  210  A    between atoms: _521  and  _524
REMARK  211  A    between atoms: _524  and  _525
REMARK  212  A    between atoms: _525  and  _526
REMARK  213  A    between atoms: _526  and  _527
REMARK  214  A    between atoms: _527  and  _528
REMARK  215  A    between atoms: _532  and  _534
REMARK  216  A    between atoms: _534  and  _535
REMARK  217  A    between atoms: _534  and  _537
REMARK  218  A    between atoms: _537  and  _538
REMARK  219  A    between atoms: _541  and  _543
REMARK  220  A    between atoms: _543  and  _544
REMARK  221  A    between atoms: _546  and  _548
REMARK  222  A    between atoms: _548  and  _549
REMARK  223  A    between atoms: _548  and  _551
REMARK  224  A    between atoms: _551  and  _552
REMARK  225  A    between atoms: _555  and  _557
REMARK  226  A    between atoms: _557  and  _558
REMARK  227  A    between atoms: _557  and  _560
REMARK  228  A    between atoms: _560  and  _561
REMARK  229  A    between atoms: _567  and  _569
REMARK  230  A    between atoms: _569  and  _570
REMARK  231  A    between atoms: _572  and  _574
REMARK  232  A    between atoms: _574  and  _575
REMARK  233  A    between atoms: _574  and  _577
REMARK  234  A    between atoms: _577  and  _578
REMARK  235  A    between atoms: _578  and  _579
REMARK  236  A    between atoms: _581  and  _583
REMARK  237  A    between atoms: _583  and  _584
REMARK  238  A    between atoms: _583  and  _586
REMARK  239  A    between atoms: _586  and  _587
REMARK  240  A    between atoms: _589  and  _591
REMARK  241  A    between atoms: _591  and  _592
REMARK  242  A    between atoms: _591  and  _594
REMARK  243  A    between atoms: _594  and  _595
REMARK  244  A    between atoms: _598  and  _600
REMARK  245  A    between atoms: _600  and  _601
REMARK  246  A    between atoms: _600  and  _603
REMARK  247  A    between atoms: _603  and  _604
REMARK  248  A    between atoms: _609  and  _610
REMARK                            x       y       z     vdW  Elec       q    Type
REMARK                         _______ _______ _______ _____ _____    ______ ____
ROOT
ATOM      1  C   ASP A   4      34.157 -29.437 -11.182  0.00  0.00    +0.241 C 
ATOM      2  N   PHE A   5      32.869 -29.208 -10.930  0.00  0.00    -0.297 N 
ATOM      3  H   PHE A   5      32.605 -28.259 -10.597  0.00  0.00    +0.150 HD
ATOM      4  O   ASP A   4      34.574 -30.437 -11.760  0.00  0.00    -0.273 OA
ENDROOT
BRANCH   2   5
ATOM      5  CA  PHE A   5      31.806 -30.187 -11.086  0.00  0.00    +0.153 C 
BRANCH   5   6
ATOM      6  C   PHE A   5      31.023 -30.270 -12.436  0.00  0.00    +0.241 C 
ATOM      7  O   PHE A   5      30.637 -31.383 -12.777  0.00  0.00    -0.273 OA
ATOM      8  N   GLY A   6      30.810 -29.205 -13.189  0.00  0.00    -0.295 N 
ATOM      9  H   GLY A   6      31.132 -28.269 -12.871  0.00  0.00    +0.150 HD
BRANCH   8  10
ATOM     10  CA  GLY A   6      30.114 -29.347 -14.483  0.00  0.00    +0.176 C 
BRANCH  10  11
ATOM     11  C   GLY A   6      28.696 -29.929 -14.506  0.00  0.00    +0.243 C 
ATOM     12  N   MET A   7      28.221 -30.441 -13.343  0.00  0.00    -0.297 N 
ATOM     13  H   MET A   7      28.902 -30.489 -12.558  0.00  0.00    +0.150 HD
ATOM     14  O   GLY A   6      28.050 -29.956 -15.558  0.00  0.00    -0.273 OA
BRANCH  12  15
ATOM     15  CA  MET A   7      26.873 -30.935 -13.049  0.00  0.00    +0.149 C 
BRANCH  15  16
ATOM     16  C   MET A   7      26.282 -29.660 -12.472  0.00  0.00    +0.241 C 
ATOM     17  N   SER A   8      27.217 -28.720 -12.159  0.00  0.00    -0.296 N 
ATOM     18  H   SER A   8      28.207 -29.029 -12.237  0.00  0.00    +0.150 HD
ATOM     19  O   MET A   7      25.068 -29.498 -12.362  0.00  0.00    -0.273 OA
BRANCH  17  20
ATOM     20  CA  SER A   8      27.023 -27.346 -11.732  0.00  0.00    +0.166 C 
BRANCH  20  21
ATOM     21  C   SER A   8      26.382 -26.704 -12.973  0.00  0.00    +0.229 C 
ATOM     22  O   SER A   8      25.479 -25.908 -12.830  0.00  0.00    -0.286 OA
ENDBRANCH  20  21
BRANCH  20  23
ATOM     23  CB  SER A   8      28.375 -26.678 -11.441  0.00  0.00    +0.165 C 
BRANCH  23  24
ATOM     24  OG  SER A   8      28.912 -27.026 -10.172  0.00  0.00    -0.380 OA
ATOM     25  H   SER A   8      29.779 -26.566 -10.045  0.00  0.00    +0.211 HD
ENDBRANCH  23  24
ENDBRANCH  20  23
ENDBRANCH  17  20
ENDBRANCH  15  16
BRANCH  15  26
ATOM     26  CB  MET A   7      26.893 -32.074 -12.022  0.00  0.00    +0.041 C 
BRANCH  26  27
ATOM     27  CG  MET A   7      26.747 -33.445 -12.657  0.00  0.00    +0.060 C 
BRANCH  27  28
ATOM     28  SD  MET A   7      27.972 -33.754 -13.957  0.00  0.00    -0.139 S 
ATOM     29  CE  MET A   7      28.982 -34.937 -13.167  0.00  0.00    +0.069 C 
ENDBRANCH  27  28
ENDBRANCH  26  27
ENDBRANCH  15  26
ENDBRANCH  12  15
ENDBRANCH  10  11
ENDBRANCH   8  10
ENDBRANCH   5   6
BRANCH   5  30
ATOM     30  CB  PHE A   5      30.825 -30.059  -9.910  0.00  0.00    +0.055 C 
BRANCH  30  31
ATOM     31  CG  PHE A   5      31.519 -30.068  -8.560  0.00  0.00    -0.020 A 
ATOM     32  CD2 PHE A   5      31.056 -29.273  -7.515  0.00  0.00    -0.004 A 
ATOM     33  CE2 PHE A   5      31.715 -29.258  -6.280  0.00  0.00    -0.000 A 
ATOM     34  CZ  PHE A   5      32.844 -30.043  -6.083  0.00  0.00    -0.000 A 
ATOM     35  CE1 PHE A   5      33.316 -30.841  -7.109  0.00  0.00    -0.000 A 
ATOM     36  CD1 PHE A   5      32.664 -30.838  -8.349  0.00  0.00    -0.004 A 
ENDBRANCH  30  31
ENDBRANCH   5  30
ENDBRANCH   2   5
BRANCH   1  37
ATOM     37  CA  ASP A   4      35.133 -28.398 -10.676  0.00  0.00    +0.160 C 
BRANCH  37  40
ATOM     38  C   GLY A   3      35.990 -28.262  -8.349  0.00  0.00    +0.243 C 
ATOM     39  O   GLY A   3      36.161 -27.045  -8.432  0.00  0.00    -0.273 OA
ATOM     40  N   ASP A   4      35.511 -28.974  -9.371  0.00  0.00    -0.296 N 
ATOM     41  H   ASP A   4      35.397 -29.999  -9.239  0.00  0.00    +0.150 HD
BRANCH  38  42
ATOM     42  CA  GLY A   3      36.286 -28.990  -7.044  0.00  0.00    +0.176 C 
BRANCH  42  45
ATOM     43  C   ILE A   2      37.358 -27.984  -5.052  0.00  0.00    +0.241 C 
ATOM     44  O   ILE A   2      38.266 -28.818  -4.984  0.00  0.00    -0.273 OA
ATOM     45  N   GLY A   3      36.391 -28.007  -5.961  0.00  0.00    -0.295 N 
ATOM     46  H   GLY A   3      35.655 -27.275  -5.901  0.00  0.00    +0.150 HD
BRANCH  43  47
ATOM     47  CA  ILE A   2      37.330 -26.793  -4.107  0.00  0.00    +0.148 C 
BRANCH  47  50
ATOM     48  C   LYS A   1      36.628 -27.490  -1.841  0.00  0.00    +0.238 C 
ATOM     49  O   LYS A   1      35.441 -27.557  -2.134  0.00  0.00    -0.274 OA
ATOM     50  N   ILE A   2      37.581 -27.178  -2.716  0.00  0.00    -0.297 N 
ATOM     51  H   ILE A   2      38.568 -27.210  -2.391  0.00  0.00    +0.150 HD
BRANCH  48  52
ATOM     52  CA  LYS A   1      37.091 -27.878  -0.433  0.00  0.00    +0.145 C 
BRANCH  52  53
ATOM     53  N   LYS A   1      36.120 -27.414   0.579  0.00  0.00    -0.238 NA
ATOM     54  H   LYS A   1      35.101 -27.548   0.420  0.00  0.00    +0.142 HD
ENDBRANCH  52  53
BRANCH  52  55
ATOM     55  CB  LYS A   1      37.261 -29.408  -0.340  0.00  0.00    +0.026 C 
BRANCH  55  56
ATOM     56  CG  LYS A   1      37.808 -29.869   1.016  0.00  0.00    -0.000 C 
BRANCH  56  57
ATOM     57  CD  LYS A   1      38.109 -31.347   1.033  0.00  0.00    -0.024 C 
BRANCH  57  58
ATOM     58  CE  LYS A   1      38.607 -31.813   2.399  0.00  0.00    -0.086 C 
BRANCH  58  59
ATOM     59  NZ  LYS A   1      39.089 -33.227   2.330  0.00  0.00    +0.380 N 
ATOM     60  HZ1 LYS A   1      39.423 -33.524   3.269  0.00  0.00    -0.089 HD
ATOM     61  HZ2 LYS A   1      38.308 -33.844   2.027  0.00  0.00    -0.089 HD
ATOM     62  HZ3 LYS A   1      39.870 -33.293   1.646  0.00  0.00    -0.089 HD
ENDBRANCH  58  59
ENDBRANCH  57  58
ENDBRANCH  56  57
ENDBRANCH  55  56
ENDBRANCH  52  55
ENDBRANCH  48  52
ENDBRANCH  47  50
BRANCH  47  63
ATOM     63  CB  ILE A   2      38.378 -25.730  -4.573  0.00  0.00    +0.027 C 
ATOM     64  CG2 ILE A   2      38.069 -25.221  -6.007  0.00  0.00    +0.002 C 
BRANCH  63  65
ATOM     65  CG1 ILE A   2      38.469 -24.547  -3.593  0.00  0.00    +0.002 C 
ATOM     66  CD1 ILE A   2      39.701 -23.613  -3.892  0.00  0.00    +0.000 C 
ENDBRANCH  63  65
ENDBRANCH  47  63
ENDBRANCH  43  47
ENDBRANCH  42  45
ENDBRANCH  38  42
ENDBRANCH  37  40
BRANCH  37  67
ATOM     67  CB  ASP A   4      36.363 -28.269 -11.578  0.00  0.00    +0.143 C 
BRANCH  67  68
ATOM     68  CG  ASP A   4      36.060 -27.639 -12.922  0.00  0.00    +0.367 C 
ATOM     69  OD2 ASP A   4      34.877 -27.414 -13.213  0.00  0.00    -0.246 OA
ATOM     70  OD1 ASP A   4      37.018 -27.377 -13.684  0.00  0.00    -0.246 OA
ENDBRANCH  67  68
ENDBRANCH  37  67
ENDBRANCH   1  37
TORSDOF 32
REMARK  Name = ../refined-set-2016/4pmm/4pmm_pocket.pdb
REMARK  248 active torsions:
REMARK  status: ('A' for Active; 'I' for Inactive)
REMARK    1  A    between atoms: _1  and  _3
REMARK    2  A    between atoms: _3  and  _4
REMARK    3  A    between atoms: _3  and  _6
REMARK    4  A    between atoms: _6  and  _7
REMARK    5  A    between atoms: _17  and  _19
REMARK    6  A    between atoms: _19  and  _20
REMARK    7  A    between atoms: _19  and  _22
REMARK    8  A    between atoms: _22  and  _23
REMARK    9  A    between atoms: _26  and  _28
REMARK   10  A    between atoms: _28  and  _29
REMARK   11  A    between atoms: _31  and  _33
REMARK   12  A    between atoms: _33  and  _34
REMARK   13  A    between atoms: _36  and  _38
REMARK   14  A    between atoms: _38  and  _39
REMARK   15  A    between atoms: _38  and  _41
REMARK   16  A    between atoms: _41  and  _42
REMARK   17  A    between atoms: _42  and  _43
REMARK   18  A    between atoms: _43  and  _44
REMARK   19  A    between atoms: _44  and  _45
REMARK   20  A    between atoms: _49  and  _51
REMARK   21  A    between atoms: _51  and  _52
REMARK   22  A    between atoms: _51  and  _54
REMARK   23  A    between atoms: _57  and  _59
REMARK   24  A    between atoms: _59  and  _60
REMARK   25  A    between atoms: _59  and  _62
REMARK   26  A    between atoms: _62  and  _63
REMARK   27  A    between atoms: _69  and  _71
REMARK   28  A    between atoms: _71  and  _72
REMARK   29  A    between atoms: _71  and  _74
REMARK   30  A    between atoms: _74  and  _75
REMARK   31  A    between atoms: _78  and  _80
REMARK   32  A    between atoms: _80  and  _81
REMARK   33  A    between atoms: _84  and  _86
REMARK   34  A    between atoms: _86  and  _87
REMARK   35  A    between atoms: _86  and  _89
REMARK   36  A    between atoms: _92  and  _94
REMARK   37  A    between atoms: _94  and  _95
REMARK   38  A    between atoms: _98  and  _100
REMARK   39  A    between atoms: _100  and  _101
REMARK   40  A    between atoms: _100  and  _103
REMARK   41  A    between atoms: _106  and  _108
REMARK   42  A    between atoms: _108  and  _109
REMARK   43  A    between atoms: _108  and  _111
REMARK   44  A    between atoms: _111  and  _112
REMARK   45  A    between atoms: _112  and  _113
REMARK   46  A    between atoms: _113  and  _114
REMARK   47  A    between atoms: _114  and  _115
REMARK   48  A    between atoms: _119  and  _121
REMARK   49  A    between atoms: _121  and  _122
REMARK   50  A    between atoms: _125  and  _127
REMARK   51  A    between atoms: _127  and  _128
REMARK   52  A    between atoms: _127  and  _130
REMARK   53  A    between atoms: _130  and  _131
REMARK   54  A    between atoms: _134  and  _136
REMARK   55  A    between atoms: _136  and  _137
REMARK   56  A    between atoms: _136  and  _139
REMARK   57  A    between atoms: _139  and  _140
REMARK   58  A    between atoms: _146  and  _148
REMARK   59  A    between atoms: _148  and  _149
REMARK   60  A    between atoms: _148  and  _151
REMARK   61  A    between atoms: _151  and  _152
REMARK   62  A    between atoms: _152  and  _153
REMARK   63  A    between atoms: _153  and  _154
REMARK   64  A    between atoms: _163  and  _165
REMARK   65  A    between atoms: _165  and  _166
REMARK   66  A    between atoms: _165  and  _168
REMARK   67  A    between atoms: _168  and  _169
REMARK   68  A    between atoms: _169  and  _170
REMARK   69  A    between atoms: _173  and  _175
REMARK   70  A    between atoms: _175  and  _176
REMARK   71  A    between atoms: _179  and  _181
REMARK   72  A    between atoms: _181  and  _182
REMARK   73  A    between atoms: _181  and  _184
REMARK   74  A    between atoms: _184  and  _185
REMARK   75  A    between atoms: _188  and  _190
REMARK   76  A    between atoms: _190  and  _191
REMARK   77  A    between atoms: _190  and  _193
REMARK   78  A    between atoms: _193  and  _194
REMARK   79  A    between atoms: _197  and  _199
REMARK   80  A    between atoms: _199  and  _200
REMARK   81  A    between atoms: _199  and  _202
REMARK   82  A    between atoms: _202  and  _203
REMARK   83  A    between atoms: _206  and  _208
REMARK   84  A    between atoms: _208  and  _209
REMARK   85  A    between atoms: _208  and  _211
REMARK   86  A    between atoms: _211  and  _212
REMARK   87  A    between atoms: _217  and  _219
REMARK   88  A    between atoms: _219  and  _220
REMARK   89  A    between atoms: _219  and  _222
REMARK   90  A    between atoms: _222  and  _223
REMARK   91  A    between atoms: _226  and  _228
REMARK   92  A    between atoms: _228  and  _229
REMARK   93  A    between atoms: _228  and  _231
REMARK   94  A    between atoms: _234  and  _236
REMARK   95  A    between atoms: _236  and  _237
REMARK   96  A    between atoms: _236  and  _239
REMARK   97  A    between atoms: _239  and  _240
REMARK   98  A    between atoms: _240  and  _241
REMARK   99  A    between atoms: _241  and  _242
REMARK  100  A    between atoms: _251  and  _253
REMARK  101  A    between atoms: _253  and  _254
REMARK  102  A    between atoms: _253  and  _256
REMARK  103  A    between atoms: _256  and  _257
REMARK  104  A    between atoms: _263  and  _265
REMARK  105  A    between atoms: _265  and  _266
REMARK  106  A    between atoms: _265  and  _268
REMARK  107  A    between atoms: _268  and  _269
REMARK  108  A    between atoms: _269  and  _270
REMARK  109  A    between atoms: _272  and  _274
REMARK  110  A    between atoms: _274  and  _275
REMARK  111  A    between atoms: _274  and  _277
REMARK  112  A    between atoms: _280  and  _282
REMARK  113  A    between atoms: _282  and  _283
REMARK  114  A    between atoms: _282  and  _285
REMARK  115  A    between atoms: _285  and  _286
REMARK  116  A    between atoms: _292  and  _294
REMARK  117  A    between atoms: _294  and  _295
REMARK  118  A    between atoms: _294  and  _297
REMARK  119  A    between atoms: _297  and  _298
REMARK  120  A    between atoms: _298  and  _299
REMARK  121  A    between atoms: _302  and  _304
REMARK  122  A    between atoms: _304  and  _305
REMARK  123  A    between atoms: _304  and  _307
REMARK  124  A    between atoms: _307  and  _308
REMARK  125  A    between atoms: _313  and  _314
REMARK  126  A    between atoms: _316  and  _318
REMARK  127  A    between atoms: _318  and  _319
REMARK  128  A    between atoms: _318  and  _321
REMARK  129  A    between atoms: _321  and  _322
REMARK  130  A    between atoms: _322  and  _323
REMARK  131  A    between atoms: _325  and  _327
REMARK  132  A    between atoms: _327  and  _328
REMARK  133  A    between atoms: _327  and  _330
REMARK  134  A    between atoms: _330  and  _331
REMARK  135  A    between atoms: _331  and  _332
REMARK  136  A    between atoms: _332  and  _333
REMARK  137  A    between atoms: _342  and  _344
REMARK  138  A    between atoms: _344  and  _345
REMARK  139  A    between atoms: _344  and  _347
REMARK  140  A    between atoms: _347  and  _348
REMARK  141  A    between atoms: _353  and  _355
REMARK  142  A    between atoms: _355  and  _356
REMARK  143  A    between atoms: _358  and  _360
REMARK  144  A    between atoms: _360  and  _361
REMARK  145  A    between atoms: _360  and  _363
REMARK  146  A    between atoms: _363  and  _364
REMARK  147  A    between atoms: _367  and  _369
REMARK  148  A    between atoms: _369  and  _370
REMARK  149  A    between atoms: _369  and  _372
REMARK  150  A    between atoms: _372  and  _373
REMARK  151  A    between atoms: _376  and  _378
REMARK  152  A    between atoms: _378  and  _379
REMARK  153  A    between atoms: _381  and  _383
REMARK  154  A    between atoms: _383  and  _384
REMARK  155  A    between atoms: _383  and  _386
REMARK  156  A    between atoms: _386  and  _387
REMARK  157  A    between atoms: _387  and  _388
REMARK  158  A    between atoms: _390  and  _392
REMARK  159  A    between atoms: _392  and  _393
REMARK  160  A    between atoms: _392  and  _395
REMARK  161  A    between atoms: _395  and  _396
REMARK  162  A    between atoms: _401  and  _402
REMARK  163  A    between atoms: _404  and  _406
REMARK  164  A    between atoms: _406  and  _407
REMARK  165  A    between atoms: _406  and  _409
REMARK  166  A    between atoms: _409  and  _410
REMARK  167  A    between atoms: _413  and  _415
REMARK  168  A    between atoms: _415  and  _416
REMARK  169  A    between atoms: _415  and  _418
REMARK  170  A    between atoms: _418  and  _419
REMARK  171  A    between atoms: _425  and  _427
REMARK  172  A    between atoms: _427  and  _428
REMARK  173  A    between atoms: _427  and  _430
REMARK  174  A    between atoms: _433  and  _435
REMARK  175  A    between atoms: _435  and  _436
REMARK  176  A    between atoms: _435  and  _438
REMARK  177  A    between atoms: _438  and  _439
REMARK  178  A    between atoms: _444  and  _446
REMARK  179  A    between atoms: _446  and  _447
REMARK  180  A    between atoms: _446  and  _449
REMARK  181  A    between atoms: _449  and  _450
REMARK  182  A    between atoms: _453  and  _455
REMARK  183  A    between atoms: _455  and  _456
REMARK  184  A    between atoms: _455  and  _458
REMARK  185  A    between atoms: _458  and  _459
REMARK  186  A    between atoms: _462  and  _464
REMARK  187  A    between atoms: _464  and  _465
REMARK  188  A    between atoms: _464  and  _467
REMARK  189  A    between atoms: _467  and  _468
REMARK  190  A    between atoms: _468  and  _469
REMARK  191  A    between atoms: _469  and  _470
REMARK  192  A    between atoms: _479  and  _481
REMARK  193  A    between atoms: _481  and  _482
REMARK  194  A    between atoms: _481  and  _484
REMARK  195  A    between atoms: _484  and  _485
REMARK  196  A    between atoms: _490  and  _492
REMARK  197  A    between atoms: _492  and  _493
REMARK  198  A    between atoms: _492  and  _495
REMARK  199  A    between atoms: _497  and  _499
REMARK  200  A    between atoms: _499  and  _500
REMARK  201  A    between atoms: _499  and  _502
REMARK  202  A    between atoms: _502  and  _503
REMARK  203  A    between atoms: _506  and  _508
REMARK  204  A    between atoms: _508  and  _509
REMARK  205  A    between atoms: _508  and  _511
REMARK  206  A    between atoms: _514  and  _516
REMARK  207  A    between atoms: _516  and  _517
REMARK  208  A    between atoms: _519  and  _521
REMARK  209  A    between atoms: _521  and  _522
REMARK  210  A    between atoms: _521  and  _524
REMARK  211  A    between atoms: _524  and  _525
REMARK  212  A    between atoms: _525  and  _526
REMARK  213  A    between atoms: _526  and  _527
REMARK  214  A    between atoms: _527  and  _528
REMARK  215  A    between atoms: _532  and  _534
REMARK  216  A    between atoms: _534  and  _535
REMARK  217  A    between atoms: _534  and  _537
REMARK  218  A    between atoms: _537  and  _538
REMARK  219  A    between atoms: _541  and  _543
REMARK  220  A    between atoms: _543  and  _544
REMARK  221  A    between atoms: _546  and  _548
REMARK  222  A    between atoms: _548  and  _549
REMARK  223  A    between atoms: _548  and  _551
REMARK  224  A    between atoms: _551  and  _552
REMARK  225  A    between atoms: _555  and  _557
REMARK  226  A    between atoms: _557  and  _558
REMARK  227  A    between atoms: _557  and  _560
REMARK  228  A    between atoms: _560  and  _561
REMARK  229  A    between atoms: _567  and  _569
REMARK  230  A    between atoms: _569  and  _570
REMARK  231  A    between atoms: _572  and  _574
REMARK  232  A    between atoms: _574  and  _575
REMARK  233  A    between atoms: _574  and  _577
REMARK  234  A    between atoms: _577  and  _578
REMARK  235  A    between atoms: _578  and  _579
REMARK  236  A    between atoms: _581  and  _583
REMARK  237  A    between atoms: _583  and  _584
REMARK  238  A    between atoms: _583  and  _586
REMARK  239  A    between atoms: _586  and  _587
REMARK  240  A    between atoms: _589  and  _591
REMARK  241  A    between atoms: _591  and  _592
REMARK  242  A    between atoms: _591  and  _594
REMARK  243  A    between atoms: _594  and  _595
REMARK  244  A    between atoms: _598  and  _600
REMARK  245  A    between atoms: _600  and  _601
REMARK  246  A    between atoms: _600  and  _603
REMARK  247  A    between atoms: _603  and  _604
REMARK  248  A    between atoms: _609  and  _610
REMARK                            x       y       z     vdW  Elec       q    Type
REMARK                         _______ _______ _______ _____ _____    ______ ____
ROOT
ATOM      1  CA  TYR A   2      23.221 -24.066 -11.951  0.00  0.00    +0.141 C 
ENDROOT
BRANCH   1   4
ATOM      2  C   ILE A   1      21.528 -25.799 -11.439  0.00  0.00    +0.238 C 
ATOM      3  O   ILE A   1      20.744 -24.976 -10.934  0.00  0.00    -0.274 OA
ATOM      4  N   TYR A   2      22.725 -25.447 -11.946  0.00  0.00    -0.298 N 
ATOM      5  H   TYR A   2      23.327 -26.190 -12.354  0.00  0.00    +0.150 HD
BRANCH   2   6
ATOM      6  CA  ILE A   1      21.149 -27.307 -11.571  0.00  0.00    +0.145 C 
BRANCH   6   7
ATOM      7  N   ILE A   1      22.014 -27.943 -12.580  0.00  0.00    -0.238 NA
ATOM      8  H   ILE A   1      22.780 -28.571 -12.264  0.00  0.00    +0.142 HD
ENDBRANCH   6   7
BRANCH   6   9
ATOM      9  CB  ILE A   1      21.132 -28.120 -10.233  0.00  0.00    +0.025 C 
ATOM     10  CG2 ILE A   1      22.430 -28.039  -9.440  0.00  0.00    +0.002 C 
BRANCH   9  11
ATOM     11  CG1 ILE A   1      19.913 -27.779  -9.364  0.00  0.00    +0.002 C 
ATOM     12  CD1 ILE A   1      18.734 -28.747  -9.555  0.00  0.00    +0.000 C 
ENDBRANCH   9  11
ENDBRANCH   6   9
ENDBRANCH   2   6
ENDBRANCH   1   4
BRANCH   1  13
ATOM     13  C   TYR A   2      23.453 -23.624 -13.386  0.00  0.00    +0.227 C 
ATOM     14  O   TYR A   2      24.353 -22.814 -13.644  0.00  0.00    -0.286 OA
ENDBRANCH   1  13
BRANCH   1  15
ATOM     15  CB  TYR A   2      24.519 -23.957 -11.139  0.00  0.00    +0.054 C 
BRANCH  15  16
ATOM     16  CG  TYR A   2      24.351 -24.262  -9.671  0.00  0.00    -0.020 A 
ATOM     17  CD2 TYR A   2      23.738 -23.352  -8.818  0.00  0.00    -0.001 A 
ATOM     18  CE2 TYR A   2      23.570 -23.630  -7.463  0.00  0.00    +0.036 A 
ATOM     19  CZ  TYR A   2      24.052 -24.819  -6.939  0.00  0.00    +0.134 A 
ATOM     20  CE1 TYR A   2      24.669 -25.738  -7.771  0.00  0.00    +0.036 A 
ATOM     21  CD1 TYR A   2      24.831 -25.446  -9.127  0.00  0.00    -0.001 A 
BRANCH  19  22
ATOM     22  OH  TYR A   2      23.887 -25.077  -5.593  0.00  0.00    -0.506 OA
ATOM     23  HH  TYR A   2      24.773 -25.210  -5.173  0.00  0.00    +0.292 HD
ENDBRANCH  19  22
ENDBRANCH  15  16
ENDBRANCH   1  15
TORSDOF 9
REMARK  Name = ../refined-set-2016/4pmm/4pmm_pocket.pdb
REMARK  248 active torsions:
REMARK  status: ('A' for Active; 'I' for Inactive)
REMARK    1  A    between atoms: _1  and  _3
REMARK    2  A    between atoms: _3  and  _4
REMARK    3  A    between atoms: _3  and  _6
REMARK    4  A    between atoms: _6  and  _7
REMARK    5  A    between atoms: _17  and  _19
REMARK    6  A    between atoms: _19  and  _20
REMARK    7  A    between atoms: _19  and  _22
REMARK    8  A    between atoms: _22  and  _23
REMARK    9  A    between atoms: _26  and  _28
REMARK   10  A    between atoms: _28  and  _29
REMARK   11  A    between atoms: _31  and  _33
REMARK   12  A    between atoms: _33  and  _34
REMARK   13  A    between atoms: _36  and  _38
REMARK   14  A    between atoms: _38  and  _39
REMARK   15  A    between atoms: _38  and  _41
REMARK   16  A    between atoms: _41  and  _42
REMARK   17  A    between atoms: _42  and  _43
REMARK   18  A    between atoms: _43  and  _44
REMARK   19  A    between atoms: _44  and  _45
REMARK   20  A    between atoms: _49  and  _51
REMARK   21  A    between atoms: _51  and  _52
REMARK   22  A    between atoms: _51  and  _54
REMARK   23  A    between atoms: _57  and  _59
REMARK   24  A    between atoms: _59  and  _60
REMARK   25  A    between atoms: _59  and  _62
REMARK   26  A    between atoms: _62  and  _63
REMARK   27  A    between atoms: _69  and  _71
REMARK   28  A    between atoms: _71  and  _72
REMARK   29  A    between atoms: _71  and  _74
REMARK   30  A    between atoms: _74  and  _75
REMARK   31  A    between atoms: _78  and  _80
REMARK   32  A    between atoms: _80  and  _81
REMARK   33  A    between atoms: _84  and  _86
REMARK   34  A    between atoms: _86  and  _87
REMARK   35  A    between atoms: _86  and  _89
REMARK   36  A    between atoms: _92  and  _94
REMARK   37  A    between atoms: _94  and  _95
REMARK   38  A    between atoms: _98  and  _100
REMARK   39  A    between atoms: _100  and  _101
REMARK   40  A    between atoms: _100  and  _103
REMARK   41  A    between atoms: _106  and  _108
REMARK   42  A    between atoms: _108  and  _109
REMARK   43  A    between atoms: _108  and  _111
REMARK   44  A    between atoms: _111  and  _112
REMARK   45  A    between atoms: _112  and  _113
REMARK   46  A    between atoms: _113  and  _114
REMARK   47  A    between atoms: _114  and  _115
REMARK   48  A    between atoms: _119  and  _121
REMARK   49  A    between atoms: _121  and  _122
REMARK   50  A    between atoms: _125  and  _127
REMARK   51  A    between atoms: _127  and  _128
REMARK   52  A    between atoms: _127  and  _130
REMARK   53  A    between atoms: _130  and  _131
REMARK   54  A    between atoms: _134  and  _136
REMARK   55  A    between atoms: _136  and  _137
REMARK   56  A    between atoms: _136  and  _139
REMARK   57  A    between atoms: _139  and  _140
REMARK   58  A    between atoms: _146  and  _148
REMARK   59  A    between atoms: _148  and  _149
REMARK   60  A    between atoms: _148  and  _151
REMARK   61  A    between atoms: _151  and  _152
REMARK   62  A    between atoms: _152  and  _153
REMARK   63  A    between atoms: _153  and  _154
REMARK   64  A    between atoms: _163  and  _165
REMARK   65  A    between atoms: _165  and  _166
REMARK   66  A    between atoms: _165  and  _168
REMARK   67  A    between atoms: _168  and  _169
REMARK   68  A    between atoms: _169  and  _170
REMARK   69  A    between atoms: _173  and  _175
REMARK   70  A    between atoms: _175  and  _176
REMARK   71  A    between atoms: _179  and  _181
REMARK   72  A    between atoms: _181  and  _182
REMARK   73  A    between atoms: _181  and  _184
REMARK   74  A    between atoms: _184  and  _185
REMARK   75  A    between atoms: _188  and  _190
REMARK   76  A    between atoms: _190  and  _191
REMARK   77  A    between atoms: _190  and  _193
REMARK   78  A    between atoms: _193  and  _194
REMARK   79  A    between atoms: _197  and  _199
REMARK   80  A    between atoms: _199  and  _200
REMARK   81  A    between atoms: _199  and  _202
REMARK   82  A    between atoms: _202  and  _203
REMARK   83  A    between atoms: _206  and  _208
REMARK   84  A    between atoms: _208  and  _209
REMARK   85  A    between atoms: _208  and  _211
REMARK   86  A    between atoms: _211  and  _212
REMARK   87  A    between atoms: _217  and  _219
REMARK   88  A    between atoms: _219  and  _220
REMARK   89  A    between atoms: _219  and  _222
REMARK   90  A    between atoms: _222  and  _223
REMARK   91  A    between atoms: _226  and  _228
REMARK   92  A    between atoms: _228  and  _229
REMARK   93  A    between atoms: _228  and  _231
REMARK   94  A    between atoms: _234  and  _236
REMARK   95  A    between atoms: _236  and  _237
REMARK   96  A    between atoms: _236  and  _239
REMARK   97  A    between atoms: _239  and  _240
REMARK   98  A    between atoms: _240  and  _241
REMARK   99  A    between atoms: _241  and  _242
REMARK  100  A    between atoms: _251  and  _253
REMARK  101  A    between atoms: _253  and  _254
REMARK  102  A    between atoms: _253  and  _256
REMARK  103  A    between atoms: _256  and  _257
REMARK  104  A    between atoms: _263  and  _265
REMARK  105  A    between atoms: _265  and  _266
REMARK  106  A    between atoms: _265  and  _268
REMARK  107  A    between atoms: _268  and  _269
REMARK  108  A    between atoms: _269  and  _270
REMARK  109  A    between atoms: _272  and  _274
REMARK  110  A    between atoms: _274  and  _275
REMARK  111  A    between atoms: _274  and  _277
REMARK  112  A    between atoms: _280  and  _282
REMARK  113  A    between atoms: _282  and  _283
REMARK  114  A    between atoms: _282  and  _285
REMARK  115  A    between atoms: _285  and  _286
REMARK  116  A    between atoms: _292  and  _294
REMARK  117  A    between atoms: _294  and  _295
REMARK  118  A    between atoms: _294  and  _297
REMARK  119  A    between atoms: _297  and  _298
REMARK  120  A    between atoms: _298  and  _299
REMARK  121  A    between atoms: _302  and  _304
REMARK  122  A    between atoms: _304  and  _305
REMARK  123  A    between atoms: _304  and  _307
REMARK  124  A    between atoms: _307  and  _308
REMARK  125  A    between atoms: _313  and  _314
REMARK  126  A    between atoms: _316  and  _318
REMARK  127  A    between atoms: _318  and  _319
REMARK  128  A    between atoms: _318  and  _321
REMARK  129  A    between atoms: _321  and  _322
REMARK  130  A    between atoms: _322  and  _323
REMARK  131  A    between atoms: _325  and  _327
REMARK  132  A    between atoms: _327  and  _328
REMARK  133  A    between atoms: _327  and  _330
REMARK  134  A    between atoms: _330  and  _331
REMARK  135  A    between atoms: _331  and  _332
REMARK  136  A    between atoms: _332  and  _333
REMARK  137  A    between atoms: _342  and  _344
REMARK  138  A    between atoms: _344  and  _345
REMARK  139  A    between atoms: _344  and  _347
REMARK  140  A    between atoms: _347  and  _348
REMARK  141  A    between atoms: _353  and  _355
REMARK  142  A    between atoms: _355  and  _356
REMARK  143  A    between atoms: _358  and  _360
REMARK  144  A    between atoms: _360  and  _361
REMARK  145  A    between atoms: _360  and  _363
REMARK  146  A    between atoms: _363  and  _364
REMARK  147  A    between atoms: _367  and  _369
REMARK  148  A    between atoms: _369  and  _370
REMARK  149  A    between atoms: _369  and  _372
REMARK  150  A    between atoms: _372  and  _373
REMARK  151  A    between atoms: _376  and  _378
REMARK  152  A    between atoms: _378  and  _379
REMARK  153  A    between atoms: _381  and  _383
REMARK  154  A    between atoms: _383  and  _384
REMARK  155  A    between atoms: _383  and  _386
REMARK  156  A    between atoms: _386  and  _387
REMARK  157  A    between atoms: _387  and  _388
REMARK  158  A    between atoms: _390  and  _392
REMARK  159  A    between atoms: _392  and  _393
REMARK  160  A    between atoms: _392  and  _395
REMARK  161  A    between atoms: _395  and  _396
REMARK  162  A    between atoms: _401  and  _402
REMARK  163  A    between atoms: _404  and  _406
REMARK  164  A    between atoms: _406  and  _407
REMARK  165  A    between atoms: _406  and  _409
REMARK  166  A    between atoms: _409  and  _410
REMARK  167  A    between atoms: _413  and  _415
REMARK  168  A    between atoms: _415  and  _416
REMARK  169  A    between atoms: _415  and  _418
REMARK  170  A    between atoms: _418  and  _419
REMARK  171  A    between atoms: _425  and  _427
REMARK  172  A    between atoms: _427  and  _428
REMARK  173  A    between atoms: _427  and  _430
REMARK  174  A    between atoms: _433  and  _435
REMARK  175  A    between atoms: _435  and  _436
REMARK  176  A    between atoms: _435  and  _438
REMARK  177  A    between atoms: _438  and  _439
REMARK  178  A    between atoms: _444  and  _446
REMARK  179  A    between atoms: _446  and  _447
REMARK  180  A    between atoms: _446  and  _449
REMARK  181  A    between atoms: _449  and  _450
REMARK  182  A    between atoms: _453  and  _455
REMARK  183  A    between atoms: _455  and  _456
REMARK  184  A    between atoms: _455  and  _458
REMARK  185  A    between atoms: _458  and  _459
REMARK  186  A    between atoms: _462  and  _464
REMARK  187  A    between atoms: _464  and  _465
REMARK  188  A    between atoms: _464  and  _467
REMARK  189  A    between atoms: _467  and  _468
REMARK  190  A    between atoms: _468  and  _469
REMARK  191  A    between atoms: _469  and  _470
REMARK  192  A    between atoms: _479  and  _481
REMARK  193  A    between atoms: _481  and  _482
REMARK  194  A    between atoms: _481  and  _484
REMARK  195  A    between atoms: _484  and  _485
REMARK  196  A    between atoms: _490  and  _492
REMARK  197  A    between atoms: _492  and  _493
REMARK  198  A    between atoms: _492  and  _495
REMARK  199  A    between atoms: _497  and  _499
REMARK  200  A    between atoms: _499  and  _500
REMARK  201  A    between atoms: _499  and  _502
REMARK  202  A    between atoms: _502  and  _503
REMARK  203  A    between atoms: _506  and  _508
REMARK  204  A    between atoms: _508  and  _509
REMARK  205  A    between atoms: _508  and  _511
REMARK  206  A    between atoms: _514  and  _516
REMARK  207  A    between atoms: _516  and  _517
REMARK  208  A    between atoms: _519  and  _521
REMARK  209  A    between atoms: _521  and  _522
REMARK  210  A    between atoms: _521  and  _524
REMARK  211  A    between atoms: _524  and  _525
REMARK  212  A    between atoms: _525  and  _526
REMARK  213  A    between atoms: _526  and  _527
REMARK  214  A    between atoms: _527  and  _528
REMARK  215  A    between atoms: _532  and  _534
REMARK  216  A    between atoms: _534  and  _535
REMARK  217  A    between atoms: _534  and  _537
REMARK  218  A    between atoms: _537  and  _538
REMARK  219  A    between atoms: _541  and  _543
REMARK  220  A    between atoms: _543  and  _544
REMARK  221  A    between atoms: _546  and  _548
REMARK  222  A    between atoms: _548  and  _549
REMARK  223  A    between atoms: _548  and  _551
REMARK  224  A    between atoms: _551  and  _552
REMARK  225  A    between atoms: _555  and  _557
REMARK  226  A    between atoms: _557  and  _558
REMARK  227  A    between atoms: _557  and  _560
REMARK  228  A    between atoms: _560  and  _561
REMARK  229  A    between atoms: _567  and  _569
REMARK  230  A    between atoms: _569  and  _570
REMARK  231  A    between atoms: _572  and  _574
REMARK  232  A    between atoms: _574  and  _575
REMARK  233  A    between atoms: _574  and  _577
REMARK  234  A    between atoms: _577  and  _578
REMARK  235  A    between atoms: _578  and  _579
REMARK  236  A    between atoms: _581  and  _583
REMARK  237  A    between atoms: _583  and  _584
REMARK  238  A    between atoms: _583  and  _586
REMARK  239  A    between atoms: _586  and  _587
REMARK  240  A    between atoms: _589  and  _591
REMARK  241  A    between atoms: _591  and  _592
REMARK  242  A    between atoms: _591  and  _594
REMARK  243  A    between atoms: _594  and  _595
REMARK  244  A    between atoms: _598  and  _600
REMARK  245  A    between atoms: _600  and  _601
REMARK  246  A    between atoms: _600  and  _603
REMARK  247  A    between atoms: _603  and  _604
REMARK  248  A    between atoms: _609  and  _610
REMARK                            x       y       z     vdW  Elec       q    Type
REMARK                         _______ _______ _______ _____ _____    ______ ____
ROOT
ATOM      1  O   HOH     1      36.761 -25.148 -15.114  0.00  0.00    +0.000 OA
ENDROOT
TORSDOF 0
REMARK  Name = ../refined-set-2016/4pmm/4pmm_pocket.pdb
REMARK  248 active torsions:
REMARK  status: ('A' for Active; 'I' for Inactive)
REMARK    1  A    between atoms: _1  and  _3
REMARK    2  A    between atoms: _3  and  _4
REMARK    3  A    between atoms: _3  and  _6
REMARK    4  A    between atoms: _6  and  _7
REMARK    5  A    between atoms: _17  and  _19
REMARK    6  A    between atoms: _19  and  _20
REMARK    7  A    between atoms: _19  and  _22
REMARK    8  A    between atoms: _22  and  _23
REMARK    9  A    between atoms: _26  and  _28
REMARK   10  A    between atoms: _28  and  _29
REMARK   11  A    between atoms: _31  and  _33
REMARK   12  A    between atoms: _33  and  _34
REMARK   13  A    between atoms: _36  and  _38
REMARK   14  A    between atoms: _38  and  _39
REMARK   15  A    between atoms: _38  and  _41
REMARK   16  A    between atoms: _41  and  _42
REMARK   17  A    between atoms: _42  and  _43
REMARK   18  A    between atoms: _43  and  _44
REMARK   19  A    between atoms: _44  and  _45
REMARK   20  A    between atoms: _49  and  _51
REMARK   21  A    between atoms: _51  and  _52
REMARK   22  A    between atoms: _51  and  _54
REMARK   23  A    between atoms: _57  and  _59
REMARK   24  A    between atoms: _59  and  _60
REMARK   25  A    between atoms: _59  and  _62
REMARK   26  A    between atoms: _62  and  _63
REMARK   27  A    between atoms: _69  and  _71
REMARK   28  A    between atoms: _71  and  _72
REMARK   29  A    between atoms: _71  and  _74
REMARK   30  A    between atoms: _74  and  _75
REMARK   31  A    between atoms: _78  and  _80
REMARK   32  A    between atoms: _80  and  _81
REMARK   33  A    between atoms: _84  and  _86
REMARK   34  A    between atoms: _86  and  _87
REMARK   35  A    between atoms: _86  and  _89
REMARK   36  A    between atoms: _92  and  _94
REMARK   37  A    between atoms: _94  and  _95
REMARK   38  A    between atoms: _98  and  _100
REMARK   39  A    between atoms: _100  and  _101
REMARK   40  A    between atoms: _100  and  _103
REMARK   41  A    between atoms: _106  and  _108
REMARK   42  A    between atoms: _108  and  _109
REMARK   43  A    between atoms: _108  and  _111
REMARK   44  A    between atoms: _111  and  _112
REMARK   45  A    between atoms: _112  and  _113
REMARK   46  A    between atoms: _113  and  _114
REMARK   47  A    between atoms: _114  and  _115
REMARK   48  A    between atoms: _119  and  _121
REMARK   49  A    between atoms: _121  and  _122
REMARK   50  A    between atoms: _125  and  _127
REMARK   51  A    between atoms: _127  and  _128
REMARK   52  A    between atoms: _127  and  _130
REMARK   53  A    between atoms: _130  and  _131
REMARK   54  A    between atoms: _134  and  _136
REMARK   55  A    between atoms: _136  and  _137
REMARK   56  A    between atoms: _136  and  _139
REMARK   57  A    between atoms: _139  and  _140
REMARK   58  A    between atoms: _146  and  _148
REMARK   59  A    between atoms: _148  and  _149
REMARK   60  A    between atoms: _148  and  _151
REMARK   61  A    between atoms: _151  and  _152
REMARK   62  A    between atoms: _152  and  _153
REMARK   63  A    between atoms: _153  and  _154
REMARK   64  A    between atoms: _163  and  _165
REMARK   65  A    between atoms: _165  and  _166
REMARK   66  A    between atoms: _165  and  _168
REMARK   67  A    between atoms: _168  and  _169
REMARK   68  A    between atoms: _169  and  _170
REMARK   69  A    between atoms: _173  and  _175
REMARK   70  A    between atoms: _175  and  _176
REMARK   71  A    between atoms: _179  and  _181
REMARK   72  A    between atoms: _181  and  _182
REMARK   73  A    between atoms: _181  and  _184
REMARK   74  A    between atoms: _184  and  _185
REMARK   75  A    between atoms: _188  and  _190
REMARK   76  A    between atoms: _190  and  _191
REMARK   77  A    between atoms: _190  and  _193
REMARK   78  A    between atoms: _193  and  _194
REMARK   79  A    between atoms: _197  and  _199
REMARK   80  A    between atoms: _199  and  _200
REMARK   81  A    between atoms: _199  and  _202
REMARK   82  A    between atoms: _202  and  _203
REMARK   83  A    between atoms: _206  and  _208
REMARK   84  A    between atoms: _208  and  _209
REMARK   85  A    between atoms: _208  and  _211
REMARK   86  A    between atoms: _211  and  _212
REMARK   87  A    between atoms: _217  and  _219
REMARK   88  A    between atoms: _219  and  _220
REMARK   89  A    between atoms: _219  and  _222
REMARK   90  A    between atoms: _222  and  _223
REMARK   91  A    between atoms: _226  and  _228
REMARK   92  A    between atoms: _228  and  _229
REMARK   93  A    between atoms: _228  and  _231
REMARK   94  A    between atoms: _234  and  _236
REMARK   95  A    between atoms: _236  and  _237
REMARK   96  A    between atoms: _236  and  _239
REMARK   97  A    between atoms: _239  and  _240
REMARK   98  A    between atoms: _240  and  _241
REMARK   99  A    between atoms: _241  and  _242
REMARK  100  A    between atoms: _251  and  _253
REMARK  101  A    between atoms: _253  and  _254
REMARK  102  A    between atoms: _253  and  _256
REMARK  103  A    between atoms: _256  and  _257
REMARK  104  A    between atoms: _263  and  _265
REMARK  105  A    between atoms: _265  and  _266
REMARK  106  A    between atoms: _265  and  _268
REMARK  107  A    between atoms: _268  and  _269
REMARK  108  A    between atoms: _269  and  _270
REMARK  109  A    between atoms: _272  and  _274
REMARK  110  A    between atoms: _274  and  _275
REMARK  111  A    between atoms: _274  and  _277
REMARK  112  A    between atoms: _280  and  _282
REMARK  113  A    between atoms: _282  and  _283
REMARK  114  A    between atoms: _282  and  _285
REMARK  115  A    between atoms: _285  and  _286
REMARK  116  A    between atoms: _292  and  _294
REMARK  117  A    between atoms: _294  and  _295
REMARK  118  A    between atoms: _294  and  _297
REMARK  119  A    between atoms: _297  and  _298
REMARK  120  A    between atoms: _298  and  _299
REMARK  121  A    between atoms: _302  and  _304
REMARK  122  A    between atoms: _304  and  _305
REMARK  123  A    between atoms: _304  and  _307
REMARK  124  A    between atoms: _307  and  _308
REMARK  125  A    between atoms: _313  and  _314
REMARK  126  A    between atoms: _316  and  _318
REMARK  127  A    between atoms: _318  and  _319
REMARK  128  A    between atoms: _318  and  _321
REMARK  129  A    between atoms: _321  and  _322
REMARK  130  A    between atoms: _322  and  _323
REMARK  131  A    between atoms: _325  and  _327
REMARK  132  A    between atoms: _327  and  _328
REMARK  133  A    between atoms: _327  and  _330
REMARK  134  A    between atoms: _330  and  _331
REMARK  135  A    between atoms: _331  and  _332
REMARK  136  A    between atoms: _332  and  _333
REMARK  137  A    between atoms: _342  and  _344
REMARK  138  A    between atoms: _344  and  _345
REMARK  139  A    between atoms: _344  and  _347
REMARK  140  A    between atoms: _347  and  _348
REMARK  141  A    between atoms: _353  and  _355
REMARK  142  A    between atoms: _355  and  _356
REMARK  143  A    between atoms: _358  and  _360
REMARK  144  A    between atoms: _360  and  _361
REMARK  145  A    between atoms: _360  and  _363
REMARK  146  A    between atoms: _363  and  _364
REMARK  147  A    between atoms: _367  and  _369
REMARK  148  A    between atoms: _369  and  _370
REMARK  149  A    between atoms: _369  and  _372
REMARK  150  A    between atoms: _372  and  _373
REMARK  151  A    between atoms: _376  and  _378
REMARK  152  A    between atoms: _378  and  _379
REMARK  153  A    between atoms: _381  and  _383
REMARK  154  A    between atoms: _383  and  _384
REMARK  155  A    between atoms: _383  and  _386
REMARK  156  A    between atoms: _386  and  _387
REMARK  157  A    between atoms: _387  and  _388
REMARK  158  A    between atoms: _390  and  _392
REMARK  159  A    between atoms: _392  and  _393
REMARK  160  A    between atoms: _392  and  _395
REMARK  161  A    between atoms: _395  and  _396
REMARK  162  A    between atoms: _401  and  _402
REMARK  163  A    between atoms: _404  and  _406
REMARK  164  A    between atoms: _406  and  _407
REMARK  165  A    between atoms: _406  and  _409
REMARK  166  A    between atoms: _409  and  _410
REMARK  167  A    between atoms: _413  and  _415
REMARK  168  A    between atoms: _415  and  _416
REMARK  169  A    between atoms: _415  and  _418
REMARK  170  A    between atoms: _418  and  _419
REMARK  171  A    between atoms: _425  and  _427
REMARK  172  A    between atoms: _427  and  _428
REMARK  173  A    between atoms: _427  and  _430
REMARK  174  A    between atoms: _433  and  _435
REMARK  175  A    between atoms: _435  and  _436
REMARK  176  A    between atoms: _435  and  _438
REMARK  177  A    between atoms: _438  and  _439
REMARK  178  A    between atoms: _444  and  _446
REMARK  179  A    between atoms: _446  and  _447
REMARK  180  A    between atoms: _446  and  _449
REMARK  181  A    between atoms: _449  and  _450
REMARK  182  A    between atoms: _453  and  _455
REMARK  183  A    between atoms: _455  and  _456
REMARK  184  A    between atoms: _455  and  _458
REMARK  185  A    between atoms: _458  and  _459
REMARK  186  A    between atoms: _462  and  _464
REMARK  187  A    between atoms: _464  and  _465
REMARK  188  A    between atoms: _464  and  _467
REMARK  189  A    between atoms: _467  and  _468
REMARK  190  A    between atoms: _468  and  _469
REMARK  191  A    between atoms: _469  and  _470
REMARK  192  A    between atoms: _479  and  _481
REMARK  193  A    between atoms: _481  and  _482
REMARK  194  A    between atoms: _481  and  _484
REMARK  195  A    between atoms: _484  and  _485
REMARK  196  A    between atoms: _490  and  _492
REMARK  197  A    between atoms: _492  and  _493
REMARK  198  A    between atoms: _492  and  _495
REMARK  199  A    between atoms: _497  and  _499
REMARK  200  A    between atoms: _499  and  _500
REMARK  201  A    between atoms: _499  and  _502
REMARK  202  A    between atoms: _502  and  _503
REMARK  203  A    between atoms: _506  and  _508
REMARK  204  A    between atoms: _508  and  _509
REMARK  205  A    between atoms: _508  and  _511
REMARK  206  A    between atoms: _514  and  _516
REMARK  207  A    between atoms: _516  and  _517
REMARK  208  A    between atoms: _519  and  _521
REMARK  209  A    between atoms: _521  and  _522
REMARK  210  A    between atoms: _521  and  _524
REMARK  211  A    between atoms: _524  and  _525
REMARK  212  A    between atoms: _525  and  _526
REMARK  213  A    between atoms: _526  and  _527
REMARK  214  A    between atoms: _527  and  _528
REMARK  215  A    between atoms: _532  and  _534
REMARK  216  A    between atoms: _534  and  _535
REMARK  217  A    between atoms: _534  and  _537
REMARK  218  A    between atoms: _537  and  _538
REMARK  219  A    between atoms: _541  and  _543
REMARK  220  A    between atoms: _543  and  _544
REMARK  221  A    between atoms: _546  and  _548
REMARK  222  A    between atoms: _548  and  _549
REMARK  223  A    between atoms: _548  and  _551
REMARK  224  A    between atoms: _551  and  _552
REMARK  225  A    between atoms: _555  and  _557
REMARK  226  A    between atoms: _557  and  _558
REMARK  227  A    between atoms: _557  and  _560
REMARK  228  A    between atoms: _560  and  _561
REMARK  229  A    between atoms: _567  and  _569
REMARK  230  A    between atoms: _569  and  _570
REMARK  231  A    between atoms: _572  and  _574
REMARK  232  A    between atoms: _574  and  _575
REMARK  233  A    between atoms: _574  and  _577
REMARK  234  A    between atoms: _577  and  _578
REMARK  235  A    between atoms: _578  and  _579
REMARK  236  A    between atoms: _581  and  _583
REMARK  237  A    between atoms: _583  and  _584
REMARK  238  A    between atoms: _583  and  _586
REMARK  239  A    between atoms: _586  and  _587
REMARK  240  A    between atoms: _589  and  _591
REMARK  241  A    between atoms: _591  and  _592
REMARK  242  A    between atoms: _591  and  _594
REMARK  243  A    between atoms: _594  and  _595
REMARK  244  A    between atoms: _598  and  _600
REMARK  245  A    between atoms: _600  and  _601
REMARK  246  A    between atoms: _600  and  _603
REMARK  247  A    between atoms: _603  and  _604
REMARK  248  A    between atoms: _609  and  _610
REMARK                            x       y       z     vdW  Elec       q    Type
REMARK                         _______ _______ _______ _____ _____    ______ ____
ROOT
ATOM      1  O   HOH     1      39.518 -27.384 -12.602  0.00  0.00    +0.000 OA
ENDROOT
TORSDOF 0
REMARK  Name = ../refined-set-2016/4pmm/4pmm_pocket.pdb
REMARK  248 active torsions:
REMARK  status: ('A' for Active; 'I' for Inactive)
REMARK    1  A    between atoms: _1  and  _3
REMARK    2  A    between atoms: _3  and  _4
REMARK    3  A    between atoms: _3  and  _6
REMARK    4  A    between atoms: _6  and  _7
REMARK    5  A    between atoms: _17  and  _19
REMARK    6  A    between atoms: _19  and  _20
REMARK    7  A    between atoms: _19  and  _22
REMARK    8  A    between atoms: _22  and  _23
REMARK    9  A    between atoms: _26  and  _28
REMARK   10  A    between atoms: _28  and  _29
REMARK   11  A    between atoms: _31  and  _33
REMARK   12  A    between atoms: _33  and  _34
REMARK   13  A    between atoms: _36  and  _38
REMARK   14  A    between atoms: _38  and  _39
REMARK   15  A    between atoms: _38  and  _41
REMARK   16  A    between atoms: _41  and  _42
REMARK   17  A    between atoms: _42  and  _43
REMARK   18  A    between atoms: _43  and  _44
REMARK   19  A    between atoms: _44  and  _45
REMARK   20  A    between atoms: _49  and  _51
REMARK   21  A    between atoms: _51  and  _52
REMARK   22  A    between atoms: _51  and  _54
REMARK   23  A    between atoms: _57  and  _59
REMARK   24  A    between atoms: _59  and  _60
REMARK   25  A    between atoms: _59  and  _62
REMARK   26  A    between atoms: _62  and  _63
REMARK   27  A    between atoms: _69  and  _71
REMARK   28  A    between atoms: _71  and  _72
REMARK   29  A    between atoms: _71  and  _74
REMARK   30  A    between atoms: _74  and  _75
REMARK   31  A    between atoms: _78  and  _80
REMARK   32  A    between atoms: _80  and  _81
REMARK   33  A    between atoms: _84  and  _86
REMARK   34  A    between atoms: _86  and  _87
REMARK   35  A    between atoms: _86  and  _89
REMARK   36  A    between atoms: _92  and  _94
REMARK   37  A    between atoms: _94  and  _95
REMARK   38  A    between atoms: _98  and  _100
REMARK   39  A    between atoms: _100  and  _101
REMARK   40  A    between atoms: _100  and  _103
REMARK   41  A    between atoms: _106  and  _108
REMARK   42  A    between atoms: _108  and  _109
REMARK   43  A    between atoms: _108  and  _111
REMARK   44  A    between atoms: _111  and  _112
REMARK   45  A    between atoms: _112  and  _113
REMARK   46  A    between atoms: _113  and  _114
REMARK   47  A    between atoms: _114  and  _115
REMARK   48  A    between atoms: _119  and  _121
REMARK   49  A    between atoms: _121  and  _122
REMARK   50  A    between atoms: _125  and  _127
REMARK   51  A    between atoms: _127  and  _128
REMARK   52  A    between atoms: _127  and  _130
REMARK   53  A    between atoms: _130  and  _131
REMARK   54  A    between atoms: _134  and  _136
REMARK   55  A    between atoms: _136  and  _137
REMARK   56  A    between atoms: _136  and  _139
REMARK   57  A    between atoms: _139  and  _140
REMARK   58  A    between atoms: _146  and  _148
REMARK   59  A    between atoms: _148  and  _149
REMARK   60  A    between atoms: _148  and  _151
REMARK   61  A    between atoms: _151  and  _152
REMARK   62  A    between atoms: _152  and  _153
REMARK   63  A    between atoms: _153  and  _154
REMARK   64  A    between atoms: _163  and  _165
REMARK   65  A    between atoms: _165  and  _166
REMARK   66  A    between atoms: _165  and  _168
REMARK   67  A    between atoms: _168  and  _169
REMARK   68  A    between atoms: _169  and  _170
REMARK   69  A    between atoms: _173  and  _175
REMARK   70  A    between atoms: _175  and  _176
REMARK   71  A    between atoms: _179  and  _181
REMARK   72  A    between atoms: _181  and  _182
REMARK   73  A    between atoms: _181  and  _184
REMARK   74  A    between atoms: _184  and  _185
REMARK   75  A    between atoms: _188  and  _190
REMARK   76  A    between atoms: _190  and  _191
REMARK   77  A    between atoms: _190  and  _193
REMARK   78  A    between atoms: _193  and  _194
REMARK   79  A    between atoms: _197  and  _199
REMARK   80  A    between atoms: _199  and  _200
REMARK   81  A    between atoms: _199  and  _202
REMARK   82  A    between atoms: _202  and  _203
REMARK   83  A    between atoms: _206  and  _208
REMARK   84  A    between atoms: _208  and  _209
REMARK   85  A    between atoms: _208  and  _211
REMARK   86  A    between atoms: _211  and  _212
REMARK   87  A    between atoms: _217  and  _219
REMARK   88  A    between atoms: _219  and  _220
REMARK   89  A    between atoms: _219  and  _222
REMARK   90  A    between atoms: _222  and  _223
REMARK   91  A    between atoms: _226  and  _228
REMARK   92  A    between atoms: _228  and  _229
REMARK   93  A    between atoms: _228  and  _231
REMARK   94  A    between atoms: _234  and  _236
REMARK   95  A    between atoms: _236  and  _237
REMARK   96  A    between atoms: _236  and  _239
REMARK   97  A    between atoms: _239  and  _240
REMARK   98  A    between atoms: _240  and  _241
REMARK   99  A    between atoms: _241  and  _242
REMARK  100  A    between atoms: _251  and  _253
REMARK  101  A    between atoms: _253  and  _254
REMARK  102  A    between atoms: _253  and  _256
REMARK  103  A    between atoms: _256  and  _257
REMARK  104  A    between atoms: _263  and  _265
REMARK  105  A    between atoms: _265  and  _266
REMARK  106  A    between atoms: _265  and  _268
REMARK  107  A    between atoms: _268  and  _269
REMARK  108  A    between atoms: _269  and  _270
REMARK  109  A    between atoms: _272  and  _274
REMARK  110  A    between atoms: _274  and  _275
REMARK  111  A    between atoms: _274  and  _277
REMARK  112  A    between atoms: _280  and  _282
REMARK  113  A    between atoms: _282  and  _283
REMARK  114  A    between atoms: _282  and  _285
REMARK  115  A    between atoms: _285  and  _286
REMARK  116  A    between atoms: _292  and  _294
REMARK  117  A    between atoms: _294  and  _295
REMARK  118  A    between atoms: _294  and  _297
REMARK  119  A    between atoms: _297  and  _298
REMARK  120  A    between atoms: _298  and  _299
REMARK  121  A    between atoms: _302  and  _304
REMARK  122  A    between atoms: _304  and  _305
REMARK  123  A    between atoms: _304  and  _307
REMARK  124  A    between atoms: _307  and  _308
REMARK  125  A    between atoms: _313  and  _314
REMARK  126  A    between atoms: _316  and  _318
REMARK  127  A    between atoms: _318  and  _319
REMARK  128  A    between atoms: _318  and  _321
REMARK  129  A    between atoms: _321  and  _322
REMARK  130  A    between atoms: _322  and  _323
REMARK  131  A    between atoms: _325  and  _327
REMARK  132  A    between atoms: _327  and  _328
REMARK  133  A    between atoms: _327  and  _330
REMARK  134  A    between atoms: _330  and  _331
REMARK  135  A    between atoms: _331  and  _332
REMARK  136  A    between atoms: _332  and  _333
REMARK  137  A    between atoms: _342  and  _344
REMARK  138  A    between atoms: _344  and  _345
REMARK  139  A    between atoms: _344  and  _347
REMARK  140  A    between atoms: _347  and  _348
REMARK  141  A    between atoms: _353  and  _355
REMARK  142  A    between atoms: _355  and  _356
REMARK  143  A    between atoms: _358  and  _360
REMARK  144  A    between atoms: _360  and  _361
REMARK  145  A    between atoms: _360  and  _363
REMARK  146  A    between atoms: _363  and  _364
REMARK  147  A    between atoms: _367  and  _369
REMARK  148  A    between atoms: _369  and  _370
REMARK  149  A    between atoms: _369  and  _372
REMARK  150  A    between atoms: _372  and  _373
REMARK  151  A    between atoms: _376  and  _378
REMARK  152  A    between atoms: _378  and  _379
REMARK  153  A    between atoms: _381  and  _383
REMARK  154  A    between atoms: _383  and  _384
REMARK  155  A    between atoms: _383  and  _386
REMARK  156  A    between atoms: _386  and  _387
REMARK  157  A    between atoms: _387  and  _388
REMARK  158  A    between atoms: _390  and  _392
REMARK  159  A    between atoms: _392  and  _393
REMARK  160  A    between atoms: _392  and  _395
REMARK  161  A    between atoms: _395  and  _396
REMARK  162  A    between atoms: _401  and  _402
REMARK  163  A    between atoms: _404  and  _406
REMARK  164  A    between atoms: _406  and  _407
REMARK  165  A    between atoms: _406  and  _409
REMARK  166  A    between atoms: _409  and  _410
REMARK  167  A    between atoms: _413  and  _415
REMARK  168  A    between atoms: _415  and  _416
REMARK  169  A    between atoms: _415  and  _418
REMARK  170  A    between atoms: _418  and  _419
REMARK  171  A    between atoms: _425  and  _427
REMARK  172  A    between atoms: _427  and  _428
REMARK  173  A    between atoms: _427  and  _430
REMARK  174  A    between atoms: _433  and  _435
REMARK  175  A    between atoms: _435  and  _436
REMARK  176  A    between atoms: _435  and  _438
REMARK  177  A    between atoms: _438  and  _439
REMARK  178  A    between atoms: _444  and  _446
REMARK  179  A    between atoms: _446  and  _447
REMARK  180  A    between atoms: _446  and  _449
REMARK  181  A    between atoms: _449  and  _450
REMARK  182  A    between atoms: _453  and  _455
REMARK  183  A    between atoms: _455  and  _456
REMARK  184  A    between atoms: _455  and  _458
REMARK  185  A    between atoms: _458  and  _459
REMARK  186  A    between atoms: _462  and  _464
REMARK  187  A    between atoms: _464  and  _465
REMARK  188  A    between atoms: _464  and  _467
REMARK  189  A    between atoms: _467  and  _468
REMARK  190  A    between atoms: _468  and  _469
REMARK  191  A    between atoms: _469  and  _470
REMARK  192  A    between atoms: _479  and  _481
REMARK  193  A    between atoms: _481  and  _482
REMARK  194  A    between atoms: _481  and  _484
REMARK  195  A    between atoms: _484  and  _485
REMARK  196  A    between atoms: _490  and  _492
REMARK  197  A    between atoms: _492  and  _493
REMARK  198  A    between atoms: _492  and  _495
REMARK  199  A    between atoms: _497  and  _499
REMARK  200  A    between atoms: _499  and  _500
REMARK  201  A    between atoms: _499  and  _502
REMARK  202  A    between atoms: _502  and  _503
REMARK  203  A    between atoms: _506  and  _508
REMARK  204  A    between atoms: _508  and  _509
REMARK  205  A    between atoms: _508  and  _511
REMARK  206  A    between atoms: _514  and  _516
REMARK  207  A    between atoms: _516  and  _517
REMARK  208  A    between atoms: _519  and  _521
REMARK  209  A    between atoms: _521  and  _522
REMARK  210  A    between atoms: _521  and  _524
REMARK  211  A    between atoms: _524  and  _525
REMARK  212  A    between atoms: _525  and  _526
REMARK  213  A    between atoms: _526  and  _527
REMARK  214  A    between atoms: _527  and  _528
REMARK  215  A    between atoms: _532  and  _534
REMARK  216  A    between atoms: _534  and  _535
REMARK  217  A    between atoms: _534  and  _537
REMARK  218  A    between atoms: _537  and  _538
REMARK  219  A    between atoms: _541  and  _543
REMARK  220  A    between atoms: _543  and  _544
REMARK  221  A    between atoms: _546  and  _548
REMARK  222  A    between atoms: _548  and  _549
REMARK  223  A    between atoms: _548  and  _551
REMARK  224  A    between atoms: _551  and  _552
REMARK  225  A    between atoms: _555  and  _557
REMARK  226  A    between atoms: _557  and  _558
REMARK  227  A    between atoms: _557  and  _560
REMARK  228  A    between atoms: _560  and  _561
REMARK  229  A    between atoms: _567  and  _569
REMARK  230  A    between atoms: _569  and  _570
REMARK  231  A    between atoms: _572  and  _574
REMARK  232  A    between atoms: _574  and  _575
REMARK  233  A    between atoms: _574  and  _577
REMARK  234  A    between atoms: _577  and  _578
REMARK  235  A    between atoms: _578  and  _579
REMARK  236  A    between atoms: _581  and  _583
REMARK  237  A    between atoms: _583  and  _584
REMARK  238  A    between atoms: _583  and  _586
REMARK  239  A    between atoms: _586  and  _587
REMARK  240  A    between atoms: _589  and  _591
REMARK  241  A    between atoms: _591  and  _592
REMARK  242  A    between atoms: _591  and  _594
REMARK  243  A    between atoms: _594  and  _595
REMARK  244  A    between atoms: _598  and  _600
REMARK  245  A    between atoms: _600  and  _601
REMARK  246  A    between atoms: _600  and  _603
REMARK  247  A    between atoms: _603  and  _604
REMARK  248  A    between atoms: _609  and  _610
REMARK                            x       y       z     vdW  Elec       q    Type
REMARK                         _______ _______ _______ _____ _____    ______ ____
ROOT
ATOM      1  O   HOH     1      34.257 -40.066   1.773  0.00  0.00    +0.000 OA
ENDROOT
TORSDOF 0
REMARK  Name = ../refined-set-2016/4pmm/4pmm_pocket.pdb
REMARK  248 active torsions:
REMARK  status: ('A' for Active; 'I' for Inactive)
REMARK    1  A    between atoms: _1  and  _3
REMARK    2  A    between atoms: _3  and  _4
REMARK    3  A    between atoms: _3  and  _6
REMARK    4  A    between atoms: _6  and  _7
REMARK    5  A    between atoms: _17  and  _19
REMARK    6  A    between atoms: _19  and  _20
REMARK    7  A    between atoms: _19  and  _22
REMARK    8  A    between atoms: _22  and  _23
REMARK    9  A    between atoms: _26  and  _28
REMARK   10  A    between atoms: _28  and  _29
REMARK   11  A    between atoms: _31  and  _33
REMARK   12  A    between atoms: _33  and  _34
REMARK   13  A    between atoms: _36  and  _38
REMARK   14  A    between atoms: _38  and  _39
REMARK   15  A    between atoms: _38  and  _41
REMARK   16  A    between atoms: _41  and  _42
REMARK   17  A    between atoms: _42  and  _43
REMARK   18  A    between atoms: _43  and  _44
REMARK   19  A    between atoms: _44  and  _45
REMARK   20  A    between atoms: _49  and  _51
REMARK   21  A    between atoms: _51  and  _52
REMARK   22  A    between atoms: _51  and  _54
REMARK   23  A    between atoms: _57  and  _59
REMARK   24  A    between atoms: _59  and  _60
REMARK   25  A    between atoms: _59  and  _62
REMARK   26  A    between atoms: _62  and  _63
REMARK   27  A    between atoms: _69  and  _71
REMARK   28  A    between atoms: _71  and  _72
REMARK   29  A    between atoms: _71  and  _74
REMARK   30  A    between atoms: _74  and  _75
REMARK   31  A    between atoms: _78  and  _80
REMARK   32  A    between atoms: _80  and  _81
REMARK   33  A    between atoms: _84  and  _86
REMARK   34  A    between atoms: _86  and  _87
REMARK   35  A    between atoms: _86  and  _89
REMARK   36  A    between atoms: _92  and  _94
REMARK   37  A    between atoms: _94  and  _95
REMARK   38  A    between atoms: _98  and  _100
REMARK   39  A    between atoms: _100  and  _101
REMARK   40  A    between atoms: _100  and  _103
REMARK   41  A    between atoms: _106  and  _108
REMARK   42  A    between atoms: _108  and  _109
REMARK   43  A    between atoms: _108  and  _111
REMARK   44  A    between atoms: _111  and  _112
REMARK   45  A    between atoms: _112  and  _113
REMARK   46  A    between atoms: _113  and  _114
REMARK   47  A    between atoms: _114  and  _115
REMARK   48  A    between atoms: _119  and  _121
REMARK   49  A    between atoms: _121  and  _122
REMARK   50  A    between atoms: _125  and  _127
REMARK   51  A    between atoms: _127  and  _128
REMARK   52  A    between atoms: _127  and  _130
REMARK   53  A    between atoms: _130  and  _131
REMARK   54  A    between atoms: _134  and  _136
REMARK   55  A    between atoms: _136  and  _137
REMARK   56  A    between atoms: _136  and  _139
REMARK   57  A    between atoms: _139  and  _140
REMARK   58  A    between atoms: _146  and  _148
REMARK   59  A    between atoms: _148  and  _149
REMARK   60  A    between atoms: _148  and  _151
REMARK   61  A    between atoms: _151  and  _152
REMARK   62  A    between atoms: _152  and  _153
REMARK   63  A    between atoms: _153  and  _154
REMARK   64  A    between atoms: _163  and  _165
REMARK   65  A    between atoms: _165  and  _166
REMARK   66  A    between atoms: _165  and  _168
REMARK   67  A    between atoms: _168  and  _169
REMARK   68  A    between atoms: _169  and  _170
REMARK   69  A    between atoms: _173  and  _175
REMARK   70  A    between atoms: _175  and  _176
REMARK   71  A    between atoms: _179  and  _181
REMARK   72  A    between atoms: _181  and  _182
REMARK   73  A    between atoms: _181  and  _184
REMARK   74  A    between atoms: _184  and  _185
REMARK   75  A    between atoms: _188  and  _190
REMARK   76  A    between atoms: _190  and  _191
REMARK   77  A    between atoms: _190  and  _193
REMARK   78  A    between atoms: _193  and  _194
REMARK   79  A    between atoms: _197  and  _199
REMARK   80  A    between atoms: _199  and  _200
REMARK   81  A    between atoms: _199  and  _202
REMARK   82  A    between atoms: _202  and  _203
REMARK   83  A    between atoms: _206  and  _208
REMARK   84  A    between atoms: _208  and  _209
REMARK   85  A    between atoms: _208  and  _211
REMARK   86  A    between atoms: _211  and  _212
REMARK   87  A    between atoms: _217  and  _219
REMARK   88  A    between atoms: _219  and  _220
REMARK   89  A    between atoms: _219  and  _222
REMARK   90  A    between atoms: _222  and  _223
REMARK   91  A    between atoms: _226  and  _228
REMARK   92  A    between atoms: _228  and  _229
REMARK   93  A    between atoms: _228  and  _231
REMARK   94  A    between atoms: _234  and  _236
REMARK   95  A    between atoms: _236  and  _237
REMARK   96  A    between atoms: _236  and  _239
REMARK   97  A    between atoms: _239  and  _240
REMARK   98  A    between atoms: _240  and  _241
REMARK   99  A    between atoms: _241  and  _242
REMARK  100  A    between atoms: _251  and  _253
REMARK  101  A    between atoms: _253  and  _254
REMARK  102  A    between atoms: _253  and  _256
REMARK  103  A    between atoms: _256  and  _257
REMARK  104  A    between atoms: _263  and  _265
REMARK  105  A    between atoms: _265  and  _266
REMARK  106  A    between atoms: _265  and  _268
REMARK  107  A    between atoms: _268  and  _269
REMARK  108  A    between atoms: _269  and  _270
REMARK  109  A    between atoms: _272  and  _274
REMARK  110  A    between atoms: _274  and  _275
REMARK  111  A    between atoms: _274  and  _277
REMARK  112  A    between atoms: _280  and  _282
REMARK  113  A    between atoms: _282  and  _283
REMARK  114  A    between atoms: _282  and  _285
REMARK  115  A    between atoms: _285  and  _286
REMARK  116  A    between atoms: _292  and  _294
REMARK  117  A    between atoms: _294  and  _295
REMARK  118  A    between atoms: _294  and  _297
REMARK  119  A    between atoms: _297  and  _298
REMARK  120  A    between atoms: _298  and  _299
REMARK  121  A    between atoms: _302  and  _304
REMARK  122  A    between atoms: _304  and  _305
REMARK  123  A    between atoms: _304  and  _307
REMARK  124  A    between atoms: _307  and  _308
REMARK  125  A    between atoms: _313  and  _314
REMARK  126  A    between atoms: _316  and  _318
REMARK  127  A    between atoms: _318  and  _319
REMARK  128  A    between atoms: _318  and  _321
REMARK  129  A    between atoms: _321  and  _322
REMARK  130  A    between atoms: _322  and  _323
REMARK  131  A    between atoms: _325  and  _327
REMARK  132  A    between atoms: _327  and  _328
REMARK  133  A    between atoms: _327  and  _330
REMARK  134  A    between atoms: _330  and  _331
REMARK  135  A    between atoms: _331  and  _332
REMARK  136  A    between atoms: _332  and  _333
REMARK  137  A    between atoms: _342  and  _344
REMARK  138  A    between atoms: _344  and  _345
REMARK  139  A    between atoms: _344  and  _347
REMARK  140  A    between atoms: _347  and  _348
REMARK  141  A    between atoms: _353  and  _355
REMARK  142  A    between atoms: _355  and  _356
REMARK  143  A    between atoms: _358  and  _360
REMARK  144  A    between atoms: _360  and  _361
REMARK  145  A    between atoms: _360  and  _363
REMARK  146  A    between atoms: _363  and  _364
REMARK  147  A    between atoms: _367  and  _369
REMARK  148  A    between atoms: _369  and  _370
REMARK  149  A    between atoms: _369  and  _372
REMARK  150  A    between atoms: _372  and  _373
REMARK  151  A    between atoms: _376  and  _378
REMARK  152  A    between atoms: _378  and  _379
REMARK  153  A    between atoms: _381  and  _383
REMARK  154  A    between atoms: _383  and  _384
REMARK  155  A    between atoms: _383  and  _386
REMARK  156  A    between atoms: _386  and  _387
REMARK  157  A    between atoms: _387  and  _388
REMARK  158  A    between atoms: _390  and  _392
REMARK  159  A    between atoms: _392  and  _393
REMARK  160  A    between atoms: _392  and  _395
REMARK  161  A    between atoms: _395  and  _396
REMARK  162  A    between atoms: _401  and  _402
REMARK  163  A    between atoms: _404  and  _406
REMARK  164  A    between atoms: _406  and  _407
REMARK  165  A    between atoms: _406  and  _409
REMARK  166  A    between atoms: _409  and  _410
REMARK  167  A    between atoms: _413  and  _415
REMARK  168  A    between atoms: _415  and  _416
REMARK  169  A    between atoms: _415  and  _418
REMARK  170  A    between atoms: _418  and  _419
REMARK  171  A    between atoms: _425  and  _427
REMARK  172  A    between atoms: _427  and  _428
REMARK  173  A    between atoms: _427  and  _430
REMARK  174  A    between atoms: _433  and  _435
REMARK  175  A    between atoms: _435  and  _436
REMARK  176  A    between atoms: _435  and  _438
REMARK  177  A    between atoms: _438  and  _439
REMARK  178  A    between atoms: _444  and  _446
REMARK  179  A    between atoms: _446  and  _447
REMARK  180  A    between atoms: _446  and  _449
REMARK  181  A    between atoms: _449  and  _450
REMARK  182  A    between atoms: _453  and  _455
REMARK  183  A    between atoms: _455  and  _456
REMARK  184  A    between atoms: _455  and  _458
REMARK  185  A    between atoms: _458  and  _459
REMARK  186  A    between atoms: _462  and  _464
REMARK  187  A    between atoms: _464  and  _465
REMARK  188  A    between atoms: _464  and  _467
REMARK  189  A    between atoms: _467  and  _468
REMARK  190  A    between atoms: _468  and  _469
REMARK  191  A    between atoms: _469  and  _470
REMARK  192  A    between atoms: _479  and  _481
REMARK  193  A    between atoms: _481  and  _482
REMARK  194  A    between atoms: _481  and  _484
REMARK  195  A    between atoms: _484  and  _485
REMARK  196  A    between atoms: _490  and  _492
REMARK  197  A    between atoms: _492  and  _493
REMARK  198  A    between atoms: _492  and  _495
REMARK  199  A    between atoms: _497  and  _499
REMARK  200  A    between atoms: _499  and  _500
REMARK  201  A    between atoms: _499  and  _502
REMARK  202  A    between atoms: _502  and  _503
REMARK  203  A    between atoms: _506  and  _508
REMARK  204  A    between atoms: _508  and  _509
REMARK  205  A    between atoms: _508  and  _511
REMARK  206  A    between atoms: _514  and  _516
REMARK  207  A    between atoms: _516  and  _517
REMARK  208  A    between atoms: _519  and  _521
REMARK  209  A    between atoms: _521  and  _522
REMARK  210  A    between atoms: _521  and  _524
REMARK  211  A    between atoms: _524  and  _525
REMARK  212  A    between atoms: _525  and  _526
REMARK  213  A    between atoms: _526  and  _527
REMARK  214  A    between atoms: _527  and  _528
REMARK  215  A    between atoms: _532  and  _534
REMARK  216  A    between atoms: _534  and  _535
REMARK  217  A    between atoms: _534  and  _537
REMARK  218  A    between atoms: _537  and  _538
REMARK  219  A    between atoms: _541  and  _543
REMARK  220  A    between atoms: _543  and  _544
REMARK  221  A    between atoms: _546  and  _548
REMARK  222  A    between atoms: _548  and  _549
REMARK  223  A    between atoms: _548  and  _551
REMARK  224  A    between atoms: _551  and  _552
REMARK  225  A    between atoms: _555  and  _557
REMARK  226  A    between atoms: _557  and  _558
REMARK  227  A    between atoms: _557  and  _560
REMARK  228  A    between atoms: _560  and  _561
REMARK  229  A    between atoms: _567  and  _569
REMARK  230  A    between atoms: _569  and  _570
REMARK  231  A    between atoms: _572  and  _574
REMARK  232  A    between atoms: _574  and  _575
REMARK  233  A    between atoms: _574  and  _577
REMARK  234  A    between atoms: _577  and  _578
REMARK  235  A    between atoms: _578  and  _579
REMARK  236  A    between atoms: _581  and  _583
REMARK  237  A    between atoms: _583  and  _584
REMARK  238  A    between atoms: _583  and  _586
REMARK  239  A    between atoms: _586  and  _587
REMARK  240  A    between atoms: _589  and  _591
REMARK  241  A    between atoms: _591  and  _592
REMARK  242  A    between atoms: _591  and  _594
REMARK  243  A    between atoms: _594  and  _595
REMARK  244  A    between atoms: _598  and  _600
REMARK  245  A    between atoms: _600  and  _601
REMARK  246  A    between atoms: _600  and  _603
REMARK  247  A    between atoms: _603  and  _604
REMARK  248  A    between atoms: _609  and  _610
REMARK                            x       y       z     vdW  Elec       q    Type
REMARK                         _______ _______ _______ _____ _____    ______ ____
ROOT
ATOM      1  O   HOH     1      42.587 -34.785  -4.688  0.00  0.00    +0.000 OA
ENDROOT
TORSDOF 0
REMARK  Name = ../refined-set-2016/4pmm/4pmm_pocket.pdb
REMARK  248 active torsions:
REMARK  status: ('A' for Active; 'I' for Inactive)
REMARK    1  A    between atoms: _1  and  _3
REMARK    2  A    between atoms: _3  and  _4
REMARK    3  A    between atoms: _3  and  _6
REMARK    4  A    between atoms: _6  and  _7
REMARK    5  A    between atoms: _17  and  _19
REMARK    6  A    between atoms: _19  and  _20
REMARK    7  A    between atoms: _19  and  _22
REMARK    8  A    between atoms: _22  and  _23
REMARK    9  A    between atoms: _26  and  _28
REMARK   10  A    between atoms: _28  and  _29
REMARK   11  A    between atoms: _31  and  _33
REMARK   12  A    between atoms: _33  and  _34
REMARK   13  A    between atoms: _36  and  _38
REMARK   14  A    between atoms: _38  and  _39
REMARK   15  A    between atoms: _38  and  _41
REMARK   16  A    between atoms: _41  and  _42
REMARK   17  A    between atoms: _42  and  _43
REMARK   18  A    between atoms: _43  and  _44
REMARK   19  A    between atoms: _44  and  _45
REMARK   20  A    between atoms: _49  and  _51
REMARK   21  A    between atoms: _51  and  _52
REMARK   22  A    between atoms: _51  and  _54
REMARK   23  A    between atoms: _57  and  _59
REMARK   24  A    between atoms: _59  and  _60
REMARK   25  A    between atoms: _59  and  _62
REMARK   26  A    between atoms: _62  and  _63
REMARK   27  A    between atoms: _69  and  _71
REMARK   28  A    between atoms: _71  and  _72
REMARK   29  A    between atoms: _71  and  _74
REMARK   30  A    between atoms: _74  and  _75
REMARK   31  A    between atoms: _78  and  _80
REMARK   32  A    between atoms: _80  and  _81
REMARK   33  A    between atoms: _84  and  _86
REMARK   34  A    between atoms: _86  and  _87
REMARK   35  A    between atoms: _86  and  _89
REMARK   36  A    between atoms: _92  and  _94
REMARK   37  A    between atoms: _94  and  _95
REMARK   38  A    between atoms: _98  and  _100
REMARK   39  A    between atoms: _100  and  _101
REMARK   40  A    between atoms: _100  and  _103
REMARK   41  A    between atoms: _106  and  _108
REMARK   42  A    between atoms: _108  and  _109
REMARK   43  A    between atoms: _108  and  _111
REMARK   44  A    between atoms: _111  and  _112
REMARK   45  A    between atoms: _112  and  _113
REMARK   46  A    between atoms: _113  and  _114
REMARK   47  A    between atoms: _114  and  _115
REMARK   48  A    between atoms: _119  and  _121
REMARK   49  A    between atoms: _121  and  _122
REMARK   50  A    between atoms: _125  and  _127
REMARK   51  A    between atoms: _127  and  _128
REMARK   52  A    between atoms: _127  and  _130
REMARK   53  A    between atoms: _130  and  _131
REMARK   54  A    between atoms: _134  and  _136
REMARK   55  A    between atoms: _136  and  _137
REMARK   56  A    between atoms: _136  and  _139
REMARK   57  A    between atoms: _139  and  _140
REMARK   58  A    between atoms: _146  and  _148
REMARK   59  A    between atoms: _148  and  _149
REMARK   60  A    between atoms: _148  and  _151
REMARK   61  A    between atoms: _151  and  _152
REMARK   62  A    between atoms: _152  and  _153
REMARK   63  A    between atoms: _153  and  _154
REMARK   64  A    between atoms: _163  and  _165
REMARK   65  A    between atoms: _165  and  _166
REMARK   66  A    between atoms: _165  and  _168
REMARK   67  A    between atoms: _168  and  _169
REMARK   68  A    between atoms: _169  and  _170
REMARK   69  A    between atoms: _173  and  _175
REMARK   70  A    between atoms: _175  and  _176
REMARK   71  A    between atoms: _179  and  _181
REMARK   72  A    between atoms: _181  and  _182
REMARK   73  A    between atoms: _181  and  _184
REMARK   74  A    between atoms: _184  and  _185
REMARK   75  A    between atoms: _188  and  _190
REMARK   76  A    between atoms: _190  and  _191
REMARK   77  A    between atoms: _190  and  _193
REMARK   78  A    between atoms: _193  and  _194
REMARK   79  A    between atoms: _197  and  _199
REMARK   80  A    between atoms: _199  and  _200
REMARK   81  A    between atoms: _199  and  _202
REMARK   82  A    between atoms: _202  and  _203
REMARK   83  A    between atoms: _206  and  _208
REMARK   84  A    between atoms: _208  and  _209
REMARK   85  A    between atoms: _208  and  _211
REMARK   86  A    between atoms: _211  and  _212
REMARK   87  A    between atoms: _217  and  _219
REMARK   88  A    between atoms: _219  and  _220
REMARK   89  A    between atoms: _219  and  _222
REMARK   90  A    between atoms: _222  and  _223
REMARK   91  A    between atoms: _226  and  _228
REMARK   92  A    between atoms: _228  and  _229
REMARK   93  A    between atoms: _228  and  _231
REMARK   94  A    between atoms: _234  and  _236
REMARK   95  A    between atoms: _236  and  _237
REMARK   96  A    between atoms: _236  and  _239
REMARK   97  A    between atoms: _239  and  _240
REMARK   98  A    between atoms: _240  and  _241
REMARK   99  A    between atoms: _241  and  _242
REMARK  100  A    between atoms: _251  and  _253
REMARK  101  A    between atoms: _253  and  _254
REMARK  102  A    between atoms: _253  and  _256
REMARK  103  A    between atoms: _256  and  _257
REMARK  104  A    between atoms: _263  and  _265
REMARK  105  A    between atoms: _265  and  _266
REMARK  106  A    between atoms: _265  and  _268
REMARK  107  A    between atoms: _268  and  _269
REMARK  108  A    between atoms: _269  and  _270
REMARK  109  A    between atoms: _272  and  _274
REMARK  110  A    between atoms: _274  and  _275
REMARK  111  A    between atoms: _274  and  _277
REMARK  112  A    between atoms: _280  and  _282
REMARK  113  A    between atoms: _282  and  _283
REMARK  114  A    between atoms: _282  and  _285
REMARK  115  A    between atoms: _285  and  _286
REMARK  116  A    between atoms: _292  and  _294
REMARK  117  A    between atoms: _294  and  _295
REMARK  118  A    between atoms: _294  and  _297
REMARK  119  A    between atoms: _297  and  _298
REMARK  120  A    between atoms: _298  and  _299
REMARK  121  A    between atoms: _302  and  _304
REMARK  122  A    between atoms: _304  and  _305
REMARK  123  A    between atoms: _304  and  _307
REMARK  124  A    between atoms: _307  and  _308
REMARK  125  A    between atoms: _313  and  _314
REMARK  126  A    between atoms: _316  and  _318
REMARK  127  A    between atoms: _318  and  _319
REMARK  128  A    between atoms: _318  and  _321
REMARK  129  A    between atoms: _321  and  _322
REMARK  130  A    between atoms: _322  and  _323
REMARK  131  A    between atoms: _325  and  _327
REMARK  132  A    between atoms: _327  and  _328
REMARK  133  A    between atoms: _327  and  _330
REMARK  134  A    between atoms: _330  and  _331
REMARK  135  A    between atoms: _331  and  _332
REMARK  136  A    between atoms: _332  and  _333
REMARK  137  A    between atoms: _342  and  _344
REMARK  138  A    between atoms: _344  and  _345
REMARK  139  A    between atoms: _344  and  _347
REMARK  140  A    between atoms: _347  and  _348
REMARK  141  A    between atoms: _353  and  _355
REMARK  142  A    between atoms: _355  and  _356
REMARK  143  A    between atoms: _358  and  _360
REMARK  144  A    between atoms: _360  and  _361
REMARK  145  A    between atoms: _360  and  _363
REMARK  146  A    between atoms: _363  and  _364
REMARK  147  A    between atoms: _367  and  _369
REMARK  148  A    between atoms: _369  and  _370
REMARK  149  A    between atoms: _369  and  _372
REMARK  150  A    between atoms: _372  and  _373
REMARK  151  A    between atoms: _376  and  _378
REMARK  152  A    between atoms: _378  and  _379
REMARK  153  A    between atoms: _381  and  _383
REMARK  154  A    between atoms: _383  and  _384
REMARK  155  A    between atoms: _383  and  _386
REMARK  156  A    between atoms: _386  and  _387
REMARK  157  A    between atoms: _387  and  _388
REMARK  158  A    between atoms: _390  and  _392
REMARK  159  A    between atoms: _392  and  _393
REMARK  160  A    between atoms: _392  and  _395
REMARK  161  A    between atoms: _395  and  _396
REMARK  162  A    between atoms: _401  and  _402
REMARK  163  A    between atoms: _404  and  _406
REMARK  164  A    between atoms: _406  and  _407
REMARK  165  A    between atoms: _406  and  _409
REMARK  166  A    between atoms: _409  and  _410
REMARK  167  A    between atoms: _413  and  _415
REMARK  168  A    between atoms: _415  and  _416
REMARK  169  A    between atoms: _415  and  _418
REMARK  170  A    between atoms: _418  and  _419
REMARK  171  A    between atoms: _425  and  _427
REMARK  172  A    between atoms: _427  and  _428
REMARK  173  A    between atoms: _427  and  _430
REMARK  174  A    between atoms: _433  and  _435
REMARK  175  A    between atoms: _435  and  _436
REMARK  176  A    between atoms: _435  and  _438
REMARK  177  A    between atoms: _438  and  _439
REMARK  178  A    between atoms: _444  and  _446
REMARK  179  A    between atoms: _446  and  _447
REMARK  180  A    between atoms: _446  and  _449
REMARK  181  A    between atoms: _449  and  _450
REMARK  182  A    between atoms: _453  and  _455
REMARK  183  A    between atoms: _455  and  _456
REMARK  184  A    between atoms: _455  and  _458
REMARK  185  A    between atoms: _458  and  _459
REMARK  186  A    between atoms: _462  and  _464
REMARK  187  A    between atoms: _464  and  _465
REMARK  188  A    between atoms: _464  and  _467
REMARK  189  A    between atoms: _467  and  _468
REMARK  190  A    between atoms: _468  and  _469
REMARK  191  A    between atoms: _469  and  _470
REMARK  192  A    between atoms: _479  and  _481
REMARK  193  A    between atoms: _481  and  _482
REMARK  194  A    between atoms: _481  and  _484
REMARK  195  A    between atoms: _484  and  _485
REMARK  196  A    between atoms: _490  and  _492
REMARK  197  A    between atoms: _492  and  _493
REMARK  198  A    between atoms: _492  and  _495
REMARK  199  A    between atoms: _497  and  _499
REMARK  200  A    between atoms: _499  and  _500
REMARK  201  A    between atoms: _499  and  _502
REMARK  202  A    between atoms: _502  and  _503
REMARK  203  A    between atoms: _506  and  _508
REMARK  204  A    between atoms: _508  and  _509
REMARK  205  A    between atoms: _508  and  _511
REMARK  206  A    between atoms: _514  and  _516
REMARK  207  A    between atoms: _516  and  _517
REMARK  208  A    between atoms: _519  and  _521
REMARK  209  A    between atoms: _521  and  _522
REMARK  210  A    between atoms: _521  and  _524
REMARK  211  A    between atoms: _524  and  _525
REMARK  212  A    between atoms: _525  and  _526
REMARK  213  A    between atoms: _526  and  _527
REMARK  214  A    between atoms: _527  and  _528
REMARK  215  A    between atoms: _532  and  _534
REMARK  216  A    between atoms: _534  and  _535
REMARK  217  A    between atoms: _534  and  _537
REMARK  218  A    between atoms: _537  and  _538
REMARK  219  A    between atoms: _541  and  _543
REMARK  220  A    between atoms: _543  and  _544
REMARK  221  A    between atoms: _546  and  _548
REMARK  222  A    between atoms: _548  and  _549
REMARK  223  A    between atoms: _548  and  _551
REMARK  224  A    between atoms: _551  and  _552
REMARK  225  A    between atoms: _555  and  _557
REMARK  226  A    between atoms: _557  and  _558
REMARK  227  A    between atoms: _557  and  _560
REMARK  228  A    between atoms: _560  and  _561
REMARK  229  A    between atoms: _567  and  _569
REMARK  230  A    between atoms: _569  and  _570
REMARK  231  A    between atoms: _572  and  _574
REMARK  232  A    between atoms: _574  and  _575
REMARK  233  A    between atoms: _574  and  _577
REMARK  234  A    between atoms: _577  and  _578
REMARK  235  A    between atoms: _578  and  _579
REMARK  236  A    between atoms: _581  and  _583
REMARK  237  A    between atoms: _583  and  _584
REMARK  238  A    between atoms: _583  and  _586
REMARK  239  A    between atoms: _586  and  _587
REMARK  240  A    between atoms: _589  and  _591
REMARK  241  A    between atoms: _591  and  _592
REMARK  242  A    between atoms: _591  and  _594
REMARK  243  A    between atoms: _594  and  _595
REMARK  244  A    between atoms: _598  and  _600
REMARK  245  A    between atoms: _600  and  _601
REMARK  246  A    between atoms: _600  and  _603
REMARK  247  A    between atoms: _603  and  _604
REMARK  248  A    between atoms: _609  and  _610
REMARK                            x       y       z     vdW  Elec       q    Type
REMARK                         _______ _______ _______ _____ _____    ______ ____
ROOT
ATOM      1  O   HOH     1      31.104 -34.463   5.884  0.00  0.00    +0.000 OA
ENDROOT
TORSDOF 0
REMARK  Name = ../refined-set-2016/4pmm/4pmm_pocket.pdb
REMARK  248 active torsions:
REMARK  status: ('A' for Active; 'I' for Inactive)
REMARK    1  A    between atoms: _1  and  _3
REMARK    2  A    between atoms: _3  and  _4
REMARK    3  A    between atoms: _3  and  _6
REMARK    4  A    between atoms: _6  and  _7
REMARK    5  A    between atoms: _17  and  _19
REMARK    6  A    between atoms: _19  and  _20
REMARK    7  A    between atoms: _19  and  _22
REMARK    8  A    between atoms: _22  and  _23
REMARK    9  A    between atoms: _26  and  _28
REMARK   10  A    between atoms: _28  and  _29
REMARK   11  A    between atoms: _31  and  _33
REMARK   12  A    between atoms: _33  and  _34
REMARK   13  A    between atoms: _36  and  _38
REMARK   14  A    between atoms: _38  and  _39
REMARK   15  A    between atoms: _38  and  _41
REMARK   16  A    between atoms: _41  and  _42
REMARK   17  A    between atoms: _42  and  _43
REMARK   18  A    between atoms: _43  and  _44
REMARK   19  A    between atoms: _44  and  _45
REMARK   20  A    between atoms: _49  and  _51
REMARK   21  A    between atoms: _51  and  _52
REMARK   22  A    between atoms: _51  and  _54
REMARK   23  A    between atoms: _57  and  _59
REMARK   24  A    between atoms: _59  and  _60
REMARK   25  A    between atoms: _59  and  _62
REMARK   26  A    between atoms: _62  and  _63
REMARK   27  A    between atoms: _69  and  _71
REMARK   28  A    between atoms: _71  and  _72
REMARK   29  A    between atoms: _71  and  _74
REMARK   30  A    between atoms: _74  and  _75
REMARK   31  A    between atoms: _78  and  _80
REMARK   32  A    between atoms: _80  and  _81
REMARK   33  A    between atoms: _84  and  _86
REMARK   34  A    between atoms: _86  and  _87
REMARK   35  A    between atoms: _86  and  _89
REMARK   36  A    between atoms: _92  and  _94
REMARK   37  A    between atoms: _94  and  _95
REMARK   38  A    between atoms: _98  and  _100
REMARK   39  A    between atoms: _100  and  _101
REMARK   40  A    between atoms: _100  and  _103
REMARK   41  A    between atoms: _106  and  _108
REMARK   42  A    between atoms: _108  and  _109
REMARK   43  A    between atoms: _108  and  _111
REMARK   44  A    between atoms: _111  and  _112
REMARK   45  A    between atoms: _112  and  _113
REMARK   46  A    between atoms: _113  and  _114
REMARK   47  A    between atoms: _114  and  _115
REMARK   48  A    between atoms: _119  and  _121
REMARK   49  A    between atoms: _121  and  _122
REMARK   50  A    between atoms: _125  and  _127
REMARK   51  A    between atoms: _127  and  _128
REMARK   52  A    between atoms: _127  and  _130
REMARK   53  A    between atoms: _130  and  _131
REMARK   54  A    between atoms: _134  and  _136
REMARK   55  A    between atoms: _136  and  _137
REMARK   56  A    between atoms: _136  and  _139
REMARK   57  A    between atoms: _139  and  _140
REMARK   58  A    between atoms: _146  and  _148
REMARK   59  A    between atoms: _148  and  _149
REMARK   60  A    between atoms: _148  and  _151
REMARK   61  A    between atoms: _151  and  _152
REMARK   62  A    between atoms: _152  and  _153
REMARK   63  A    between atoms: _153  and  _154
REMARK   64  A    between atoms: _163  and  _165
REMARK   65  A    between atoms: _165  and  _166
REMARK   66  A    between atoms: _165  and  _168
REMARK   67  A    between atoms: _168  and  _169
REMARK   68  A    between atoms: _169  and  _170
REMARK   69  A    between atoms: _173  and  _175
REMARK   70  A    between atoms: _175  and  _176
REMARK   71  A    between atoms: _179  and  _181
REMARK   72  A    between atoms: _181  and  _182
REMARK   73  A    between atoms: _181  and  _184
REMARK   74  A    between atoms: _184  and  _185
REMARK   75  A    between atoms: _188  and  _190
REMARK   76  A    between atoms: _190  and  _191
REMARK   77  A    between atoms: _190  and  _193
REMARK   78  A    between atoms: _193  and  _194
REMARK   79  A    between atoms: _197  and  _199
REMARK   80  A    between atoms: _199  and  _200
REMARK   81  A    between atoms: _199  and  _202
REMARK   82  A    between atoms: _202  and  _203
REMARK   83  A    between atoms: _206  and  _208
REMARK   84  A    between atoms: _208  and  _209
REMARK   85  A    between atoms: _208  and  _211
REMARK   86  A    between atoms: _211  and  _212
REMARK   87  A    between atoms: _217  and  _219
REMARK   88  A    between atoms: _219  and  _220
REMARK   89  A    between atoms: _219  and  _222
REMARK   90  A    between atoms: _222  and  _223
REMARK   91  A    between atoms: _226  and  _228
REMARK   92  A    between atoms: _228  and  _229
REMARK   93  A    between atoms: _228  and  _231
REMARK   94  A    between atoms: _234  and  _236
REMARK   95  A    between atoms: _236  and  _237
REMARK   96  A    between atoms: _236  and  _239
REMARK   97  A    between atoms: _239  and  _240
REMARK   98  A    between atoms: _240  and  _241
REMARK   99  A    between atoms: _241  and  _242
REMARK  100  A    between atoms: _251  and  _253
REMARK  101  A    between atoms: _253  and  _254
REMARK  102  A    between atoms: _253  and  _256
REMARK  103  A    between atoms: _256  and  _257
REMARK  104  A    between atoms: _263  and  _265
REMARK  105  A    between atoms: _265  and  _266
REMARK  106  A    between atoms: _265  and  _268
REMARK  107  A    between atoms: _268  and  _269
REMARK  108  A    between atoms: _269  and  _270
REMARK  109  A    between atoms: _272  and  _274
REMARK  110  A    between atoms: _274  and  _275
REMARK  111  A    between atoms: _274  and  _277
REMARK  112  A    between atoms: _280  and  _282
REMARK  113  A    between atoms: _282  and  _283
REMARK  114  A    between atoms: _282  and  _285
REMARK  115  A    between atoms: _285  and  _286
REMARK  116  A    between atoms: _292  and  _294
REMARK  117  A    between atoms: _294  and  _295
REMARK  118  A    between atoms: _294  and  _297
REMARK  119  A    between atoms: _297  and  _298
REMARK  120  A    between atoms: _298  and  _299
REMARK  121  A    between atoms: _302  and  _304
REMARK  122  A    between atoms: _304  and  _305
REMARK  123  A    between atoms: _304  and  _307
REMARK  124  A    between atoms: _307  and  _308
REMARK  125  A    between atoms: _313  and  _314
REMARK  126  A    between atoms: _316  and  _318
REMARK  127  A    between atoms: _318  and  _319
REMARK  128  A    between atoms: _318  and  _321
REMARK  129  A    between atoms: _321  and  _322
REMARK  130  A    between atoms: _322  and  _323
REMARK  131  A    between atoms: _325  and  _327
REMARK  132  A    between atoms: _327  and  _328
REMARK  133  A    between atoms: _327  and  _330
REMARK  134  A    between atoms: _330  and  _331
REMARK  135  A    between atoms: _331  and  _332
REMARK  136  A    between atoms: _332  and  _333
REMARK  137  A    between atoms: _342  and  _344
REMARK  138  A    between atoms: _344  and  _345
REMARK  139  A    between atoms: _344  and  _347
REMARK  140  A    between atoms: _347  and  _348
REMARK  141  A    between atoms: _353  and  _355
REMARK  142  A    between atoms: _355  and  _356
REMARK  143  A    between atoms: _358  and  _360
REMARK  144  A    between atoms: _360  and  _361
REMARK  145  A    between atoms: _360  and  _363
REMARK  146  A    between atoms: _363  and  _364
REMARK  147  A    between atoms: _367  and  _369
REMARK  148  A    between atoms: _369  and  _370
REMARK  149  A    between atoms: _369  and  _372
REMARK  150  A    between atoms: _372  and  _373
REMARK  151  A    between atoms: _376  and  _378
REMARK  152  A    between atoms: _378  and  _379
REMARK  153  A    between atoms: _381  and  _383
REMARK  154  A    between atoms: _383  and  _384
REMARK  155  A    between atoms: _383  and  _386
REMARK  156  A    between atoms: _386  and  _387
REMARK  157  A    between atoms: _387  and  _388
REMARK  158  A    between atoms: _390  and  _392
REMARK  159  A    between atoms: _392  and  _393
REMARK  160  A    between atoms: _392  and  _395
REMARK  161  A    between atoms: _395  and  _396
REMARK  162  A    between atoms: _401  and  _402
REMARK  163  A    between atoms: _404  and  _406
REMARK  164  A    between atoms: _406  and  _407
REMARK  165  A    between atoms: _406  and  _409
REMARK  166  A    between atoms: _409  and  _410
REMARK  167  A    between atoms: _413  and  _415
REMARK  168  A    between atoms: _415  and  _416
REMARK  169  A    between atoms: _415  and  _418
REMARK  170  A    between atoms: _418  and  _419
REMARK  171  A    between atoms: _425  and  _427
REMARK  172  A    between atoms: _427  and  _428
REMARK  173  A    between atoms: _427  and  _430
REMARK  174  A    between atoms: _433  and  _435
REMARK  175  A    between atoms: _435  and  _436
REMARK  176  A    between atoms: _435  and  _438
REMARK  177  A    between atoms: _438  and  _439
REMARK  178  A    between atoms: _444  and  _446
REMARK  179  A    between atoms: _446  and  _447
REMARK  180  A    between atoms: _446  and  _449
REMARK  181  A    between atoms: _449  and  _450
REMARK  182  A    between atoms: _453  and  _455
REMARK  183  A    between atoms: _455  and  _456
REMARK  184  A    between atoms: _455  and  _458
REMARK  185  A    between atoms: _458  and  _459
REMARK  186  A    between atoms: _462  and  _464
REMARK  187  A    between atoms: _464  and  _465
REMARK  188  A    between atoms: _464  and  _467
REMARK  189  A    between atoms: _467  and  _468
REMARK  190  A    between atoms: _468  and  _469
REMARK  191  A    between atoms: _469  and  _470
REMARK  192  A    between atoms: _479  and  _481
REMARK  193  A    between atoms: _481  and  _482
REMARK  194  A    between atoms: _481  and  _484
REMARK  195  A    between atoms: _484  and  _485
REMARK  196  A    between atoms: _490  and  _492
REMARK  197  A    between atoms: _492  and  _493
REMARK  198  A    between atoms: _492  and  _495
REMARK  199  A    between atoms: _497  and  _499
REMARK  200  A    between atoms: _499  and  _500
REMARK  201  A    between atoms: _499  and  _502
REMARK  202  A    between atoms: _502  and  _503
REMARK  203  A    between atoms: _506  and  _508
REMARK  204  A    between atoms: _508  and  _509
REMARK  205  A    between atoms: _508  and  _511
REMARK  206  A    between atoms: _514  and  _516
REMARK  207  A    between atoms: _516  and  _517
REMARK  208  A    between atoms: _519  and  _521
REMARK  209  A    between atoms: _521  and  _522
REMARK  210  A    between atoms: _521  and  _524
REMARK  211  A    between atoms: _524  and  _525
REMARK  212  A    between atoms: _525  and  _526
REMARK  213  A    between atoms: _526  and  _527
REMARK  214  A    between atoms: _527  and  _528
REMARK  215  A    between atoms: _532  and  _534
REMARK  216  A    between atoms: _534  and  _535
REMARK  217  A    between atoms: _534  and  _537
REMARK  218  A    between atoms: _537  and  _538
REMARK  219  A    between atoms: _541  and  _543
REMARK  220  A    between atoms: _543  and  _544
REMARK  221  A    between atoms: _546  and  _548
REMARK  222  A    between atoms: _548  and  _549
REMARK  223  A    between atoms: _548  and  _551
REMARK  224  A    between atoms: _551  and  _552
REMARK  225  A    between atoms: _555  and  _557
REMARK  226  A    between atoms: _557  and  _558
REMARK  227  A    between atoms: _557  and  _560
REMARK  228  A    between atoms: _560  and  _561
REMARK  229  A    between atoms: _567  and  _569
REMARK  230  A    between atoms: _569  and  _570
REMARK  231  A    between atoms: _572  and  _574
REMARK  232  A    between atoms: _574  and  _575
REMARK  233  A    between atoms: _574  and  _577
REMARK  234  A    between atoms: _577  and  _578
REMARK  235  A    between atoms: _578  and  _579
REMARK  236  A    between atoms: _581  and  _583
REMARK  237  A    between atoms: _583  and  _584
REMARK  238  A    between atoms: _583  and  _586
REMARK  239  A    between atoms: _586  and  _587
REMARK  240  A    between atoms: _589  and  _591
REMARK  241  A    between atoms: _591  and  _592
REMARK  242  A    between atoms: _591  and  _594
REMARK  243  A    between atoms: _594  and  _595
REMARK  244  A    between atoms: _598  and  _600
REMARK  245  A    between atoms: _600  and  _601
REMARK  246  A    between atoms: _600  and  _603
REMARK  247  A    between atoms: _603  and  _604
REMARK  248  A    between atoms: _609  and  _610
REMARK                            x       y       z     vdW  Elec       q    Type
REMARK                         _______ _______ _______ _____ _____    ______ ____
ROOT
ATOM      1  O   HOH     1      27.578 -27.945  -7.840  0.00  0.00    +0.000 OA
ENDROOT
TORSDOF 0
REMARK  Name = ../refined-set-2016/4pmm/4pmm_pocket.pdb
REMARK  248 active torsions:
REMARK  status: ('A' for Active; 'I' for Inactive)
REMARK    1  A    between atoms: _1  and  _3
REMARK    2  A    between atoms: _3  and  _4
REMARK    3  A    between atoms: _3  and  _6
REMARK    4  A    between atoms: _6  and  _7
REMARK    5  A    between atoms: _17  and  _19
REMARK    6  A    between atoms: _19  and  _20
REMARK    7  A    between atoms: _19  and  _22
REMARK    8  A    between atoms: _22  and  _23
REMARK    9  A    between atoms: _26  and  _28
REMARK   10  A    between atoms: _28  and  _29
REMARK   11  A    between atoms: _31  and  _33
REMARK   12  A    between atoms: _33  and  _34
REMARK   13  A    between atoms: _36  and  _38
REMARK   14  A    between atoms: _38  and  _39
REMARK   15  A    between atoms: _38  and  _41
REMARK   16  A    between atoms: _41  and  _42
REMARK   17  A    between atoms: _42  and  _43
REMARK   18  A    between atoms: _43  and  _44
REMARK   19  A    between atoms: _44  and  _45
REMARK   20  A    between atoms: _49  and  _51
REMARK   21  A    between atoms: _51  and  _52
REMARK   22  A    between atoms: _51  and  _54
REMARK   23  A    between atoms: _57  and  _59
REMARK   24  A    between atoms: _59  and  _60
REMARK   25  A    between atoms: _59  and  _62
REMARK   26  A    between atoms: _62  and  _63
REMARK   27  A    between atoms: _69  and  _71
REMARK   28  A    between atoms: _71  and  _72
REMARK   29  A    between atoms: _71  and  _74
REMARK   30  A    between atoms: _74  and  _75
REMARK   31  A    between atoms: _78  and  _80
REMARK   32  A    between atoms: _80  and  _81
REMARK   33  A    between atoms: _84  and  _86
REMARK   34  A    between atoms: _86  and  _87
REMARK   35  A    between atoms: _86  and  _89
REMARK   36  A    between atoms: _92  and  _94
REMARK   37  A    between atoms: _94  and  _95
REMARK   38  A    between atoms: _98  and  _100
REMARK   39  A    between atoms: _100  and  _101
REMARK   40  A    between atoms: _100  and  _103
REMARK   41  A    between atoms: _106  and  _108
REMARK   42  A    between atoms: _108  and  _109
REMARK   43  A    between atoms: _108  and  _111
REMARK   44  A    between atoms: _111  and  _112
REMARK   45  A    between atoms: _112  and  _113
REMARK   46  A    between atoms: _113  and  _114
REMARK   47  A    between atoms: _114  and  _115
REMARK   48  A    between atoms: _119  and  _121
REMARK   49  A    between atoms: _121  and  _122
REMARK   50  A    between atoms: _125  and  _127
REMARK   51  A    between atoms: _127  and  _128
REMARK   52  A    between atoms: _127  and  _130
REMARK   53  A    between atoms: _130  and  _131
REMARK   54  A    between atoms: _134  and  _136
REMARK   55  A    between atoms: _136  and  _137
REMARK   56  A    between atoms: _136  and  _139
REMARK   57  A    between atoms: _139  and  _140
REMARK   58  A    between atoms: _146  and  _148
REMARK   59  A    between atoms: _148  and  _149
REMARK   60  A    between atoms: _148  and  _151
REMARK   61  A    between atoms: _151  and  _152
REMARK   62  A    between atoms: _152  and  _153
REMARK   63  A    between atoms: _153  and  _154
REMARK   64  A    between atoms: _163  and  _165
REMARK   65  A    between atoms: _165  and  _166
REMARK   66  A    between atoms: _165  and  _168
REMARK   67  A    between atoms: _168  and  _169
REMARK   68  A    between atoms: _169  and  _170
REMARK   69  A    between atoms: _173  and  _175
REMARK   70  A    between atoms: _175  and  _176
REMARK   71  A    between atoms: _179  and  _181
REMARK   72  A    between atoms: _181  and  _182
REMARK   73  A    between atoms: _181  and  _184
REMARK   74  A    between atoms: _184  and  _185
REMARK   75  A    between atoms: _188  and  _190
REMARK   76  A    between atoms: _190  and  _191
REMARK   77  A    between atoms: _190  and  _193
REMARK   78  A    between atoms: _193  and  _194
REMARK   79  A    between atoms: _197  and  _199
REMARK   80  A    between atoms: _199  and  _200
REMARK   81  A    between atoms: _199  and  _202
REMARK   82  A    between atoms: _202  and  _203
REMARK   83  A    between atoms: _206  and  _208
REMARK   84  A    between atoms: _208  and  _209
REMARK   85  A    between atoms: _208  and  _211
REMARK   86  A    between atoms: _211  and  _212
REMARK   87  A    between atoms: _217  and  _219
REMARK   88  A    between atoms: _219  and  _220
REMARK   89  A    between atoms: _219  and  _222
REMARK   90  A    between atoms: _222  and  _223
REMARK   91  A    between atoms: _226  and  _228
REMARK   92  A    between atoms: _228  and  _229
REMARK   93  A    between atoms: _228  and  _231
REMARK   94  A    between atoms: _234  and  _236
REMARK   95  A    between atoms: _236  and  _237
REMARK   96  A    between atoms: _236  and  _239
REMARK   97  A    between atoms: _239  and  _240
REMARK   98  A    between atoms: _240  and  _241
REMARK   99  A    between atoms: _241  and  _242
REMARK  100  A    between atoms: _251  and  _253
REMARK  101  A    between atoms: _253  and  _254
REMARK  102  A    between atoms: _253  and  _256
REMARK  103  A    between atoms: _256  and  _257
REMARK  104  A    between atoms: _263  and  _265
REMARK  105  A    between atoms: _265  and  _266
REMARK  106  A    between atoms: _265  and  _268
REMARK  107  A    between atoms: _268  and  _269
REMARK  108  A    between atoms: _269  and  _270
REMARK  109  A    between atoms: _272  and  _274
REMARK  110  A    between atoms: _274  and  _275
REMARK  111  A    between atoms: _274  and  _277
REMARK  112  A    between atoms: _280  and  _282
REMARK  113  A    between atoms: _282  and  _283
REMARK  114  A    between atoms: _282  and  _285
REMARK  115  A    between atoms: _285  and  _286
REMARK  116  A    between atoms: _292  and  _294
REMARK  117  A    between atoms: _294  and  _295
REMARK  118  A    between atoms: _294  and  _297
REMARK  119  A    between atoms: _297  and  _298
REMARK  120  A    between atoms: _298  and  _299
REMARK  121  A    between atoms: _302  and  _304
REMARK  122  A    between atoms: _304  and  _305
REMARK  123  A    between atoms: _304  and  _307
REMARK  124  A    between atoms: _307  and  _308
REMARK  125  A    between atoms: _313  and  _314
REMARK  126  A    between atoms: _316  and  _318
REMARK  127  A    between atoms: _318  and  _319
REMARK  128  A    between atoms: _318  and  _321
REMARK  129  A    between atoms: _321  and  _322
REMARK  130  A    between atoms: _322  and  _323
REMARK  131  A    between atoms: _325  and  _327
REMARK  132  A    between atoms: _327  and  _328
REMARK  133  A    between atoms: _327  and  _330
REMARK  134  A    between atoms: _330  and  _331
REMARK  135  A    between atoms: _331  and  _332
REMARK  136  A    between atoms: _332  and  _333
REMARK  137  A    between atoms: _342  and  _344
REMARK  138  A    between atoms: _344  and  _345
REMARK  139  A    between atoms: _344  and  _347
REMARK  140  A    between atoms: _347  and  _348
REMARK  141  A    between atoms: _353  and  _355
REMARK  142  A    between atoms: _355  and  _356
REMARK  143  A    between atoms: _358  and  _360
REMARK  144  A    between atoms: _360  and  _361
REMARK  145  A    between atoms: _360  and  _363
REMARK  146  A    between atoms: _363  and  _364
REMARK  147  A    between atoms: _367  and  _369
REMARK  148  A    between atoms: _369  and  _370
REMARK  149  A    between atoms: _369  and  _372
REMARK  150  A    between atoms: _372  and  _373
REMARK  151  A    between atoms: _376  and  _378
REMARK  152  A    between atoms: _378  and  _379
REMARK  153  A    between atoms: _381  and  _383
REMARK  154  A    between atoms: _383  and  _384
REMARK  155  A    between atoms: _383  and  _386
REMARK  156  A    between atoms: _386  and  _387
REMARK  157  A    between atoms: _387  and  _388
REMARK  158  A    between atoms: _390  and  _392
REMARK  159  A    between atoms: _392  and  _393
REMARK  160  A    between atoms: _392  and  _395
REMARK  161  A    between atoms: _395  and  _396
REMARK  162  A    between atoms: _401  and  _402
REMARK  163  A    between atoms: _404  and  _406
REMARK  164  A    between atoms: _406  and  _407
REMARK  165  A    between atoms: _406  and  _409
REMARK  166  A    between atoms: _409  and  _410
REMARK  167  A    between atoms: _413  and  _415
REMARK  168  A    between atoms: _415  and  _416
REMARK  169  A    between atoms: _415  and  _418
REMARK  170  A    between atoms: _418  and  _419
REMARK  171  A    between atoms: _425  and  _427
REMARK  172  A    between atoms: _427  and  _428
REMARK  173  A    between atoms: _427  and  _430
REMARK  174  A    between atoms: _433  and  _435
REMARK  175  A    between atoms: _435  and  _436
REMARK  176  A    between atoms: _435  and  _438
REMARK  177  A    between atoms: _438  and  _439
REMARK  178  A    between atoms: _444  and  _446
REMARK  179  A    between atoms: _446  and  _447
REMARK  180  A    between atoms: _446  and  _449
REMARK  181  A    between atoms: _449  and  _450
REMARK  182  A    between atoms: _453  and  _455
REMARK  183  A    between atoms: _455  and  _456
REMARK  184  A    between atoms: _455  and  _458
REMARK  185  A    between atoms: _458  and  _459
REMARK  186  A    between atoms: _462  and  _464
REMARK  187  A    between atoms: _464  and  _465
REMARK  188  A    between atoms: _464  and  _467
REMARK  189  A    between atoms: _467  and  _468
REMARK  190  A    between atoms: _468  and  _469
REMARK  191  A    between atoms: _469  and  _470
REMARK  192  A    between atoms: _479  and  _481
REMARK  193  A    between atoms: _481  and  _482
REMARK  194  A    between atoms: _481  and  _484
REMARK  195  A    between atoms: _484  and  _485
REMARK  196  A    between atoms: _490  and  _492
REMARK  197  A    between atoms: _492  and  _493
REMARK  198  A    between atoms: _492  and  _495
REMARK  199  A    between atoms: _497  and  _499
REMARK  200  A    between atoms: _499  and  _500
REMARK  201  A    between atoms: _499  and  _502
REMARK  202  A    between atoms: _502  and  _503
REMARK  203  A    between atoms: _506  and  _508
REMARK  204  A    between atoms: _508  and  _509
REMARK  205  A    between atoms: _508  and  _511
REMARK  206  A    between atoms: _514  and  _516
REMARK  207  A    between atoms: _516  and  _517
REMARK  208  A    between atoms: _519  and  _521
REMARK  209  A    between atoms: _521  and  _522
REMARK  210  A    between atoms: _521  and  _524
REMARK  211  A    between atoms: _524  and  _525
REMARK  212  A    between atoms: _525  and  _526
REMARK  213  A    between atoms: _526  and  _527
REMARK  214  A    between atoms: _527  and  _528
REMARK  215  A    between atoms: _532  and  _534
REMARK  216  A    between atoms: _534  and  _535
REMARK  217  A    between atoms: _534  and  _537
REMARK  218  A    between atoms: _537  and  _538
REMARK  219  A    between atoms: _541  and  _543
REMARK  220  A    between atoms: _543  and  _544
REMARK  221  A    between atoms: _546  and  _548
REMARK  222  A    between atoms: _548  and  _549
REMARK  223  A    between atoms: _548  and  _551
REMARK  224  A    between atoms: _551  and  _552
REMARK  225  A    between atoms: _555  and  _557
REMARK  226  A    between atoms: _557  and  _558
REMARK  227  A    between atoms: _557  and  _560
REMARK  228  A    between atoms: _560  and  _561
REMARK  229  A    between atoms: _567  and  _569
REMARK  230  A    between atoms: _569  and  _570
REMARK  231  A    between atoms: _572  and  _574
REMARK  232  A    between atoms: _574  and  _575
REMARK  233  A    between atoms: _574  and  _577
REMARK  234  A    between atoms: _577  and  _578
REMARK  235  A    between atoms: _578  and  _579
REMARK  236  A    between atoms: _581  and  _583
REMARK  237  A    between atoms: _583  and  _584
REMARK  238  A    between atoms: _583  and  _586
REMARK  239  A    between atoms: _586  and  _587
REMARK  240  A    between atoms: _589  and  _591
REMARK  241  A    between atoms: _591  and  _592
REMARK  242  A    between atoms: _591  and  _594
REMARK  243  A    between atoms: _594  and  _595
REMARK  244  A    between atoms: _598  and  _600
REMARK  245  A    between atoms: _600  and  _601
REMARK  246  A    between atoms: _600  and  _603
REMARK  247  A    between atoms: _603  and  _604
REMARK  248  A    between atoms: _609  and  _610
REMARK                            x       y       z     vdW  Elec       q    Type
REMARK                         _______ _______ _______ _____ _____    ______ ____
ROOT
ATOM      1  O   HOH     1      26.417 -29.863  -9.258  0.00  0.00    +0.000 OA
ENDROOT
TORSDOF 0
REMARK  Name = ../refined-set-2016/4pmm/4pmm_pocket.pdb
REMARK  248 active torsions:
REMARK  status: ('A' for Active; 'I' for Inactive)
REMARK    1  A    between atoms: _1  and  _3
REMARK    2  A    between atoms: _3  and  _4
REMARK    3  A    between atoms: _3  and  _6
REMARK    4  A    between atoms: _6  and  _7
REMARK    5  A    between atoms: _17  and  _19
REMARK    6  A    between atoms: _19  and  _20
REMARK    7  A    between atoms: _19  and  _22
REMARK    8  A    between atoms: _22  and  _23
REMARK    9  A    between atoms: _26  and  _28
REMARK   10  A    between atoms: _28  and  _29
REMARK   11  A    between atoms: _31  and  _33
REMARK   12  A    between atoms: _33  and  _34
REMARK   13  A    between atoms: _36  and  _38
REMARK   14  A    between atoms: _38  and  _39
REMARK   15  A    between atoms: _38  and  _41
REMARK   16  A    between atoms: _41  and  _42
REMARK   17  A    between atoms: _42  and  _43
REMARK   18  A    between atoms: _43  and  _44
REMARK   19  A    between atoms: _44  and  _45
REMARK   20  A    between atoms: _49  and  _51
REMARK   21  A    between atoms: _51  and  _52
REMARK   22  A    between atoms: _51  and  _54
REMARK   23  A    between atoms: _57  and  _59
REMARK   24  A    between atoms: _59  and  _60
REMARK   25  A    between atoms: _59  and  _62
REMARK   26  A    between atoms: _62  and  _63
REMARK   27  A    between atoms: _69  and  _71
REMARK   28  A    between atoms: _71  and  _72
REMARK   29  A    between atoms: _71  and  _74
REMARK   30  A    between atoms: _74  and  _75
REMARK   31  A    between atoms: _78  and  _80
REMARK   32  A    between atoms: _80  and  _81
REMARK   33  A    between atoms: _84  and  _86
REMARK   34  A    between atoms: _86  and  _87
REMARK   35  A    between atoms: _86  and  _89
REMARK   36  A    between atoms: _92  and  _94
REMARK   37  A    between atoms: _94  and  _95
REMARK   38  A    between atoms: _98  and  _100
REMARK   39  A    between atoms: _100  and  _101
REMARK   40  A    between atoms: _100  and  _103
REMARK   41  A    between atoms: _106  and  _108
REMARK   42  A    between atoms: _108  and  _109
REMARK   43  A    between atoms: _108  and  _111
REMARK   44  A    between atoms: _111  and  _112
REMARK   45  A    between atoms: _112  and  _113
REMARK   46  A    between atoms: _113  and  _114
REMARK   47  A    between atoms: _114  and  _115
REMARK   48  A    between atoms: _119  and  _121
REMARK   49  A    between atoms: _121  and  _122
REMARK   50  A    between atoms: _125  and  _127
REMARK   51  A    between atoms: _127  and  _128
REMARK   52  A    between atoms: _127  and  _130
REMARK   53  A    between atoms: _130  and  _131
REMARK   54  A    between atoms: _134  and  _136
REMARK   55  A    between atoms: _136  and  _137
REMARK   56  A    between atoms: _136  and  _139
REMARK   57  A    between atoms: _139  and  _140
REMARK   58  A    between atoms: _146  and  _148
REMARK   59  A    between atoms: _148  and  _149
REMARK   60  A    between atoms: _148  and  _151
REMARK   61  A    between atoms: _151  and  _152
REMARK   62  A    between atoms: _152  and  _153
REMARK   63  A    between atoms: _153  and  _154
REMARK   64  A    between atoms: _163  and  _165
REMARK   65  A    between atoms: _165  and  _166
REMARK   66  A    between atoms: _165  and  _168
REMARK   67  A    between atoms: _168  and  _169
REMARK   68  A    between atoms: _169  and  _170
REMARK   69  A    between atoms: _173  and  _175
REMARK   70  A    between atoms: _175  and  _176
REMARK   71  A    between atoms: _179  and  _181
REMARK   72  A    between atoms: _181  and  _182
REMARK   73  A    between atoms: _181  and  _184
REMARK   74  A    between atoms: _184  and  _185
REMARK   75  A    between atoms: _188  and  _190
REMARK   76  A    between atoms: _190  and  _191
REMARK   77  A    between atoms: _190  and  _193
REMARK   78  A    between atoms: _193  and  _194
REMARK   79  A    between atoms: _197  and  _199
REMARK   80  A    between atoms: _199  and  _200
REMARK   81  A    between atoms: _199  and  _202
REMARK   82  A    between atoms: _202  and  _203
REMARK   83  A    between atoms: _206  and  _208
REMARK   84  A    between atoms: _208  and  _209
REMARK   85  A    between atoms: _208  and  _211
REMARK   86  A    between atoms: _211  and  _212
REMARK   87  A    between atoms: _217  and  _219
REMARK   88  A    between atoms: _219  and  _220
REMARK   89  A    between atoms: _219  and  _222
REMARK   90  A    between atoms: _222  and  _223
REMARK   91  A    between atoms: _226  and  _228
REMARK   92  A    between atoms: _228  and  _229
REMARK   93  A    between atoms: _228  and  _231
REMARK   94  A    between atoms: _234  and  _236
REMARK   95  A    between atoms: _236  and  _237
REMARK   96  A    between atoms: _236  and  _239
REMARK   97  A    between atoms: _239  and  _240
REMARK   98  A    between atoms: _240  and  _241
REMARK   99  A    between atoms: _241  and  _242
REMARK  100  A    between atoms: _251  and  _253
REMARK  101  A    between atoms: _253  and  _254
REMARK  102  A    between atoms: _253  and  _256
REMARK  103  A    between atoms: _256  and  _257
REMARK  104  A    between atoms: _263  and  _265
REMARK  105  A    between atoms: _265  and  _266
REMARK  106  A    between atoms: _265  and  _268
REMARK  107  A    between atoms: _268  and  _269
REMARK  108  A    between atoms: _269  and  _270
REMARK  109  A    between atoms: _272  and  _274
REMARK  110  A    between atoms: _274  and  _275
REMARK  111  A    between atoms: _274  and  _277
REMARK  112  A    between atoms: _280  and  _282
REMARK  113  A    between atoms: _282  and  _283
REMARK  114  A    between atoms: _282  and  _285
REMARK  115  A    between atoms: _285  and  _286
REMARK  116  A    between atoms: _292  and  _294
REMARK  117  A    between atoms: _294  and  _295
REMARK  118  A    between atoms: _294  and  _297
REMARK  119  A    between atoms: _297  and  _298
REMARK  120  A    between atoms: _298  and  _299
REMARK  121  A    between atoms: _302  and  _304
REMARK  122  A    between atoms: _304  and  _305
REMARK  123  A    between atoms: _304  and  _307
REMARK  124  A    between atoms: _307  and  _308
REMARK  125  A    between atoms: _313  and  _314
REMARK  126  A    between atoms: _316  and  _318
REMARK  127  A    between atoms: _318  and  _319
REMARK  128  A    between atoms: _318  and  _321
REMARK  129  A    between atoms: _321  and  _322
REMARK  130  A    between atoms: _322  and  _323
REMARK  131  A    between atoms: _325  and  _327
REMARK  132  A    between atoms: _327  and  _328
REMARK  133  A    between atoms: _327  and  _330
REMARK  134  A    between atoms: _330  and  _331
REMARK  135  A    between atoms: _331  and  _332
REMARK  136  A    between atoms: _332  and  _333
REMARK  137  A    between atoms: _342  and  _344
REMARK  138  A    between atoms: _344  and  _345
REMARK  139  A    between atoms: _344  and  _347
REMARK  140  A    between atoms: _347  and  _348
REMARK  141  A    between atoms: _353  and  _355
REMARK  142  A    between atoms: _355  and  _356
REMARK  143  A    between atoms: _358  and  _360
REMARK  144  A    between atoms: _360  and  _361
REMARK  145  A    between atoms: _360  and  _363
REMARK  146  A    between atoms: _363  and  _364
REMARK  147  A    between atoms: _367  and  _369
REMARK  148  A    between atoms: _369  and  _370
REMARK  149  A    between atoms: _369  and  _372
REMARK  150  A    between atoms: _372  and  _373
REMARK  151  A    between atoms: _376  and  _378
REMARK  152  A    between atoms: _378  and  _379
REMARK  153  A    between atoms: _381  and  _383
REMARK  154  A    between atoms: _383  and  _384
REMARK  155  A    between atoms: _383  and  _386
REMARK  156  A    between atoms: _386  and  _387
REMARK  157  A    between atoms: _387  and  _388
REMARK  158  A    between atoms: _390  and  _392
REMARK  159  A    between atoms: _392  and  _393
REMARK  160  A    between atoms: _392  and  _395
REMARK  161  A    between atoms: _395  and  _396
REMARK  162  A    between atoms: _401  and  _402
REMARK  163  A    between atoms: _404  and  _406
REMARK  164  A    between atoms: _406  and  _407
REMARK  165  A    between atoms: _406  and  _409
REMARK  166  A    between atoms: _409  and  _410
REMARK  167  A    between atoms: _413  and  _415
REMARK  168  A    between atoms: _415  and  _416
REMARK  169  A    between atoms: _415  and  _418
REMARK  170  A    between atoms: _418  and  _419
REMARK  171  A    between atoms: _425  and  _427
REMARK  172  A    between atoms: _427  and  _428
REMARK  173  A    between atoms: _427  and  _430
REMARK  174  A    between atoms: _433  and  _435
REMARK  175  A    between atoms: _435  and  _436
REMARK  176  A    between atoms: _435  and  _438
REMARK  177  A    between atoms: _438  and  _439
REMARK  178  A    between atoms: _444  and  _446
REMARK  179  A    between atoms: _446  and  _447
REMARK  180  A    between atoms: _446  and  _449
REMARK  181  A    between atoms: _449  and  _450
REMARK  182  A    between atoms: _453  and  _455
REMARK  183  A    between atoms: _455  and  _456
REMARK  184  A    between atoms: _455  and  _458
REMARK  185  A    between atoms: _458  and  _459
REMARK  186  A    between atoms: _462  and  _464
REMARK  187  A    between atoms: _464  and  _465
REMARK  188  A    between atoms: _464  and  _467
REMARK  189  A    between atoms: _467  and  _468
REMARK  190  A    between atoms: _468  and  _469
REMARK  191  A    between atoms: _469  and  _470
REMARK  192  A    between atoms: _479  and  _481
REMARK  193  A    between atoms: _481  and  _482
REMARK  194  A    between atoms: _481  and  _484
REMARK  195  A    between atoms: _484  and  _485
REMARK  196  A    between atoms: _490  and  _492
REMARK  197  A    between atoms: _492  and  _493
REMARK  198  A    between atoms: _492  and  _495
REMARK  199  A    between atoms: _497  and  _499
REMARK  200  A    between atoms: _499  and  _500
REMARK  201  A    between atoms: _499  and  _502
REMARK  202  A    between atoms: _502  and  _503
REMARK  203  A    between atoms: _506  and  _508
REMARK  204  A    between atoms: _508  and  _509
REMARK  205  A    between atoms: _508  and  _511
REMARK  206  A    between atoms: _514  and  _516
REMARK  207  A    between atoms: _516  and  _517
REMARK  208  A    between atoms: _519  and  _521
REMARK  209  A    between atoms: _521  and  _522
REMARK  210  A    between atoms: _521  and  _524
REMARK  211  A    between atoms: _524  and  _525
REMARK  212  A    between atoms: _525  and  _526
REMARK  213  A    between atoms: _526  and  _527
REMARK  214  A    between atoms: _527  and  _528
REMARK  215  A    between atoms: _532  and  _534
REMARK  216  A    between atoms: _534  and  _535
REMARK  217  A    between atoms: _534  and  _537
REMARK  218  A    between atoms: _537  and  _538
REMARK  219  A    between atoms: _541  and  _543
REMARK  220  A    between atoms: _543  and  _544
REMARK  221  A    between atoms: _546  and  _548
REMARK  222  A    between atoms: _548  and  _549
REMARK  223  A    between atoms: _548  and  _551
REMARK  224  A    between atoms: _551  and  _552
REMARK  225  A    between atoms: _555  and  _557
REMARK  226  A    between atoms: _557  and  _558
REMARK  227  A    between atoms: _557  and  _560
REMARK  228  A    between atoms: _560  and  _561
REMARK  229  A    between atoms: _567  and  _569
REMARK  230  A    between atoms: _569  and  _570
REMARK  231  A    between atoms: _572  and  _574
REMARK  232  A    between atoms: _574  and  _575
REMARK  233  A    between atoms: _574  and  _577
REMARK  234  A    between atoms: _577  and  _578
REMARK  235  A    between atoms: _578  and  _579
REMARK  236  A    between atoms: _581  and  _583
REMARK  237  A    between atoms: _583  and  _584
REMARK  238  A    between atoms: _583  and  _586
REMARK  239  A    between atoms: _586  and  _587
REMARK  240  A    between atoms: _589  and  _591
REMARK  241  A    between atoms: _591  and  _592
REMARK  242  A    between atoms: _591  and  _594
REMARK  243  A    between atoms: _594  and  _595
REMARK  244  A    between atoms: _598  and  _600
REMARK  245  A    between atoms: _600  and  _601
REMARK  246  A    between atoms: _600  and  _603
REMARK  247  A    between atoms: _603  and  _604
REMARK  248  A    between atoms: _609  and  _610
REMARK                            x       y       z     vdW  Elec       q    Type
REMARK                         _______ _______ _______ _____ _____    ______ ____
ROOT
ATOM      1  O   HOH     1      28.636 -33.207 -16.860  0.00  0.00    +0.000 OA
ENDROOT
TORSDOF 0
REMARK  Name = ../refined-set-2016/4pmm/4pmm_pocket.pdb
REMARK  248 active torsions:
REMARK  status: ('A' for Active; 'I' for Inactive)
REMARK    1  A    between atoms: _1  and  _3
REMARK    2  A    between atoms: _3  and  _4
REMARK    3  A    between atoms: _3  and  _6
REMARK    4  A    between atoms: _6  and  _7
REMARK    5  A    between atoms: _17  and  _19
REMARK    6  A    between atoms: _19  and  _20
REMARK    7  A    between atoms: _19  and  _22
REMARK    8  A    between atoms: _22  and  _23
REMARK    9  A    between atoms: _26  and  _28
REMARK   10  A    between atoms: _28  and  _29
REMARK   11  A    between atoms: _31  and  _33
REMARK   12  A    between atoms: _33  and  _34
REMARK   13  A    between atoms: _36  and  _38
REMARK   14  A    between atoms: _38  and  _39
REMARK   15  A    between atoms: _38  and  _41
REMARK   16  A    between atoms: _41  and  _42
REMARK   17  A    between atoms: _42  and  _43
REMARK   18  A    between atoms: _43  and  _44
REMARK   19  A    between atoms: _44  and  _45
REMARK   20  A    between atoms: _49  and  _51
REMARK   21  A    between atoms: _51  and  _52
REMARK   22  A    between atoms: _51  and  _54
REMARK   23  A    between atoms: _57  and  _59
REMARK   24  A    between atoms: _59  and  _60
REMARK   25  A    between atoms: _59  and  _62
REMARK   26  A    between atoms: _62  and  _63
REMARK   27  A    between atoms: _69  and  _71
REMARK   28  A    between atoms: _71  and  _72
REMARK   29  A    between atoms: _71  and  _74
REMARK   30  A    between atoms: _74  and  _75
REMARK   31  A    between atoms: _78  and  _80
REMARK   32  A    between atoms: _80  and  _81
REMARK   33  A    between atoms: _84  and  _86
REMARK   34  A    between atoms: _86  and  _87
REMARK   35  A    between atoms: _86  and  _89
REMARK   36  A    between atoms: _92  and  _94
REMARK   37  A    between atoms: _94  and  _95
REMARK   38  A    between atoms: _98  and  _100
REMARK   39  A    between atoms: _100  and  _101
REMARK   40  A    between atoms: _100  and  _103
REMARK   41  A    between atoms: _106  and  _108
REMARK   42  A    between atoms: _108  and  _109
REMARK   43  A    between atoms: _108  and  _111
REMARK   44  A    between atoms: _111  and  _112
REMARK   45  A    between atoms: _112  and  _113
REMARK   46  A    between atoms: _113  and  _114
REMARK   47  A    between atoms: _114  and  _115
REMARK   48  A    between atoms: _119  and  _121
REMARK   49  A    between atoms: _121  and  _122
REMARK   50  A    between atoms: _125  and  _127
REMARK   51  A    between atoms: _127  and  _128
REMARK   52  A    between atoms: _127  and  _130
REMARK   53  A    between atoms: _130  and  _131
REMARK   54  A    between atoms: _134  and  _136
REMARK   55  A    between atoms: _136  and  _137
REMARK   56  A    between atoms: _136  and  _139
REMARK   57  A    between atoms: _139  and  _140
REMARK   58  A    between atoms: _146  and  _148
REMARK   59  A    between atoms: _148  and  _149
REMARK   60  A    between atoms: _148  and  _151
REMARK   61  A    between atoms: _151  and  _152
REMARK   62  A    between atoms: _152  and  _153
REMARK   63  A    between atoms: _153  and  _154
REMARK   64  A    between atoms: _163  and  _165
REMARK   65  A    between atoms: _165  and  _166
REMARK   66  A    between atoms: _165  and  _168
REMARK   67  A    between atoms: _168  and  _169
REMARK   68  A    between atoms: _169  and  _170
REMARK   69  A    between atoms: _173  and  _175
REMARK   70  A    between atoms: _175  and  _176
REMARK   71  A    between atoms: _179  and  _181
REMARK   72  A    between atoms: _181  and  _182
REMARK   73  A    between atoms: _181  and  _184
REMARK   74  A    between atoms: _184  and  _185
REMARK   75  A    between atoms: _188  and  _190
REMARK   76  A    between atoms: _190  and  _191
REMARK   77  A    between atoms: _190  and  _193
REMARK   78  A    between atoms: _193  and  _194
REMARK   79  A    between atoms: _197  and  _199
REMARK   80  A    between atoms: _199  and  _200
REMARK   81  A    between atoms: _199  and  _202
REMARK   82  A    between atoms: _202  and  _203
REMARK   83  A    between atoms: _206  and  _208
REMARK   84  A    between atoms: _208  and  _209
REMARK   85  A    between atoms: _208  and  _211
REMARK   86  A    between atoms: _211  and  _212
REMARK   87  A    between atoms: _217  and  _219
REMARK   88  A    between atoms: _219  and  _220
REMARK   89  A    between atoms: _219  and  _222
REMARK   90  A    between atoms: _222  and  _223
REMARK   91  A    between atoms: _226  and  _228
REMARK   92  A    between atoms: _228  and  _229
REMARK   93  A    between atoms: _228  and  _231
REMARK   94  A    between atoms: _234  and  _236
REMARK   95  A    between atoms: _236  and  _237
REMARK   96  A    between atoms: _236  and  _239
REMARK   97  A    between atoms: _239  and  _240
REMARK   98  A    between atoms: _240  and  _241
REMARK   99  A    between atoms: _241  and  _242
REMARK  100  A    between atoms: _251  and  _253
REMARK  101  A    between atoms: _253  and  _254
REMARK  102  A    between atoms: _253  and  _256
REMARK  103  A    between atoms: _256  and  _257
REMARK  104  A    between atoms: _263  and  _265
REMARK  105  A    between atoms: _265  and  _266
REMARK  106  A    between atoms: _265  and  _268
REMARK  107  A    between atoms: _268  and  _269
REMARK  108  A    between atoms: _269  and  _270
REMARK  109  A    between atoms: _272  and  _274
REMARK  110  A    between atoms: _274  and  _275
REMARK  111  A    between atoms: _274  and  _277
REMARK  112  A    between atoms: _280  and  _282
REMARK  113  A    between atoms: _282  and  _283
REMARK  114  A    between atoms: _282  and  _285
REMARK  115  A    between atoms: _285  and  _286
REMARK  116  A    between atoms: _292  and  _294
REMARK  117  A    between atoms: _294  and  _295
REMARK  118  A    between atoms: _294  and  _297
REMARK  119  A    between atoms: _297  and  _298
REMARK  120  A    between atoms: _298  and  _299
REMARK  121  A    between atoms: _302  and  _304
REMARK  122  A    between atoms: _304  and  _305
REMARK  123  A    between atoms: _304  and  _307
REMARK  124  A    between atoms: _307  and  _308
REMARK  125  A    between atoms: _313  and  _314
REMARK  126  A    between atoms: _316  and  _318
REMARK  127  A    between atoms: _318  and  _319
REMARK  128  A    between atoms: _318  and  _321
REMARK  129  A    between atoms: _321  and  _322
REMARK  130  A    between atoms: _322  and  _323
REMARK  131  A    between atoms: _325  and  _327
REMARK  132  A    between atoms: _327  and  _328
REMARK  133  A    between atoms: _327  and  _330
REMARK  134  A    between atoms: _330  and  _331
REMARK  135  A    between atoms: _331  and  _332
REMARK  136  A    between atoms: _332  and  _333
REMARK  137  A    between atoms: _342  and  _344
REMARK  138  A    between atoms: _344  and  _345
REMARK  139  A    between atoms: _344  and  _347
REMARK  140  A    between atoms: _347  and  _348
REMARK  141  A    between atoms: _353  and  _355
REMARK  142  A    between atoms: _355  and  _356
REMARK  143  A    between atoms: _358  and  _360
REMARK  144  A    between atoms: _360  and  _361
REMARK  145  A    between atoms: _360  and  _363
REMARK  146  A    between atoms: _363  and  _364
REMARK  147  A    between atoms: _367  and  _369
REMARK  148  A    between atoms: _369  and  _370
REMARK  149  A    between atoms: _369  and  _372
REMARK  150  A    between atoms: _372  and  _373
REMARK  151  A    between atoms: _376  and  _378
REMARK  152  A    between atoms: _378  and  _379
REMARK  153  A    between atoms: _381  and  _383
REMARK  154  A    between atoms: _383  and  _384
REMARK  155  A    between atoms: _383  and  _386
REMARK  156  A    between atoms: _386  and  _387
REMARK  157  A    between atoms: _387  and  _388
REMARK  158  A    between atoms: _390  and  _392
REMARK  159  A    between atoms: _392  and  _393
REMARK  160  A    between atoms: _392  and  _395
REMARK  161  A    between atoms: _395  and  _396
REMARK  162  A    between atoms: _401  and  _402
REMARK  163  A    between atoms: _404  and  _406
REMARK  164  A    between atoms: _406  and  _407
REMARK  165  A    between atoms: _406  and  _409
REMARK  166  A    between atoms: _409  and  _410
REMARK  167  A    between atoms: _413  and  _415
REMARK  168  A    between atoms: _415  and  _416
REMARK  169  A    between atoms: _415  and  _418
REMARK  170  A    between atoms: _418  and  _419
REMARK  171  A    between atoms: _425  and  _427
REMARK  172  A    between atoms: _427  and  _428
REMARK  173  A    between atoms: _427  and  _430
REMARK  174  A    between atoms: _433  and  _435
REMARK  175  A    between atoms: _435  and  _436
REMARK  176  A    between atoms: _435  and  _438
REMARK  177  A    between atoms: _438  and  _439
REMARK  178  A    between atoms: _444  and  _446
REMARK  179  A    between atoms: _446  and  _447
REMARK  180  A    between atoms: _446  and  _449
REMARK  181  A    between atoms: _449  and  _450
REMARK  182  A    between atoms: _453  and  _455
REMARK  183  A    between atoms: _455  and  _456
REMARK  184  A    between atoms: _455  and  _458
REMARK  185  A    between atoms: _458  and  _459
REMARK  186  A    between atoms: _462  and  _464
REMARK  187  A    between atoms: _464  and  _465
REMARK  188  A    between atoms: _464  and  _467
REMARK  189  A    between atoms: _467  and  _468
REMARK  190  A    between atoms: _468  and  _469
REMARK  191  A    between atoms: _469  and  _470
REMARK  192  A    between atoms: _479  and  _481
REMARK  193  A    between atoms: _481  and  _482
REMARK  194  A    between atoms: _481  and  _484
REMARK  195  A    between atoms: _484  and  _485
REMARK  196  A    between atoms: _490  and  _492
REMARK  197  A    between atoms: _492  and  _493
REMARK  198  A    between atoms: _492  and  _495
REMARK  199  A    between atoms: _497  and  _499
REMARK  200  A    between atoms: _499  and  _500
REMARK  201  A    between atoms: _499  and  _502
REMARK  202  A    between atoms: _502  and  _503
REMARK  203  A    between atoms: _506  and  _508
REMARK  204  A    between atoms: _508  and  _509
REMARK  205  A    between atoms: _508  and  _511
REMARK  206  A    between atoms: _514  and  _516
REMARK  207  A    between atoms: _516  and  _517
REMARK  208  A    between atoms: _519  and  _521
REMARK  209  A    between atoms: _521  and  _522
REMARK  210  A    between atoms: _521  and  _524
REMARK  211  A    between atoms: _524  and  _525
REMARK  212  A    between atoms: _525  and  _526
REMARK  213  A    between atoms: _526  and  _527
REMARK  214  A    between atoms: _527  and  _528
REMARK  215  A    between atoms: _532  and  _534
REMARK  216  A    between atoms: _534  and  _535
REMARK  217  A    between atoms: _534  and  _537
REMARK  218  A    between atoms: _537  and  _538
REMARK  219  A    between atoms: _541  and  _543
REMARK  220  A    between atoms: _543  and  _544
REMARK  221  A    between atoms: _546  and  _548
REMARK  222  A    between atoms: _548  and  _549
REMARK  223  A    between atoms: _548  and  _551
REMARK  224  A    between atoms: _551  and  _552
REMARK  225  A    between atoms: _555  and  _557
REMARK  226  A    between atoms: _557  and  _558
REMARK  227  A    between atoms: _557  and  _560
REMARK  228  A    between atoms: _560  and  _561
REMARK  229  A    between atoms: _567  and  _569
REMARK  230  A    between atoms: _569  and  _570
REMARK  231  A    between atoms: _572  and  _574
REMARK  232  A    between atoms: _574  and  _575
REMARK  233  A    between atoms: _574  and  _577
REMARK  234  A    between atoms: _577  and  _578
REMARK  235  A    between atoms: _578  and  _579
REMARK  236  A    between atoms: _581  and  _583
REMARK  237  A    between atoms: _583  and  _584
REMARK  238  A    between atoms: _583  and  _586
REMARK  239  A    between atoms: _586  and  _587
REMARK  240  A    between atoms: _589  and  _591
REMARK  241  A    between atoms: _591  and  _592
REMARK  242  A    between atoms: _591  and  _594
REMARK  243  A    between atoms: _594  and  _595
REMARK  244  A    between atoms: _598  and  _600
REMARK  245  A    between atoms: _600  and  _601
REMARK  246  A    between atoms: _600  and  _603
REMARK  247  A    between atoms: _603  and  _604
REMARK  248  A    between atoms: _609  and  _610
REMARK                            x       y       z     vdW  Elec       q    Type
REMARK                         _______ _______ _______ _____ _____    ______ ____
ROOT
ATOM      1  O   HOH     1      25.810 -29.327  -6.348  0.00  0.00    +0.000 OA
ENDROOT
TORSDOF 0
REMARK  Name = ../refined-set-2016/4pmm/4pmm_pocket.pdb
REMARK  248 active torsions:
REMARK  status: ('A' for Active; 'I' for Inactive)
REMARK    1  A    between atoms: _1  and  _3
REMARK    2  A    between atoms: _3  and  _4
REMARK    3  A    between atoms: _3  and  _6
REMARK    4  A    between atoms: _6  and  _7
REMARK    5  A    between atoms: _17  and  _19
REMARK    6  A    between atoms: _19  and  _20
REMARK    7  A    between atoms: _19  and  _22
REMARK    8  A    between atoms: _22  and  _23
REMARK    9  A    between atoms: _26  and  _28
REMARK   10  A    between atoms: _28  and  _29
REMARK   11  A    between atoms: _31  and  _33
REMARK   12  A    between atoms: _33  and  _34
REMARK   13  A    between atoms: _36  and  _38
REMARK   14  A    between atoms: _38  and  _39
REMARK   15  A    between atoms: _38  and  _41
REMARK   16  A    between atoms: _41  and  _42
REMARK   17  A    between atoms: _42  and  _43
REMARK   18  A    between atoms: _43  and  _44
REMARK   19  A    between atoms: _44  and  _45
REMARK   20  A    between atoms: _49  and  _51
REMARK   21  A    between atoms: _51  and  _52
REMARK   22  A    between atoms: _51  and  _54
REMARK   23  A    between atoms: _57  and  _59
REMARK   24  A    between atoms: _59  and  _60
REMARK   25  A    between atoms: _59  and  _62
REMARK   26  A    between atoms: _62  and  _63
REMARK   27  A    between atoms: _69  and  _71
REMARK   28  A    between atoms: _71  and  _72
REMARK   29  A    between atoms: _71  and  _74
REMARK   30  A    between atoms: _74  and  _75
REMARK   31  A    between atoms: _78  and  _80
REMARK   32  A    between atoms: _80  and  _81
REMARK   33  A    between atoms: _84  and  _86
REMARK   34  A    between atoms: _86  and  _87
REMARK   35  A    between atoms: _86  and  _89
REMARK   36  A    between atoms: _92  and  _94
REMARK   37  A    between atoms: _94  and  _95
REMARK   38  A    between atoms: _98  and  _100
REMARK   39  A    between atoms: _100  and  _101
REMARK   40  A    between atoms: _100  and  _103
REMARK   41  A    between atoms: _106  and  _108
REMARK   42  A    between atoms: _108  and  _109
REMARK   43  A    between atoms: _108  and  _111
REMARK   44  A    between atoms: _111  and  _112
REMARK   45  A    between atoms: _112  and  _113
REMARK   46  A    between atoms: _113  and  _114
REMARK   47  A    between atoms: _114  and  _115
REMARK   48  A    between atoms: _119  and  _121
REMARK   49  A    between atoms: _121  and  _122
REMARK   50  A    between atoms: _125  and  _127
REMARK   51  A    between atoms: _127  and  _128
REMARK   52  A    between atoms: _127  and  _130
REMARK   53  A    between atoms: _130  and  _131
REMARK   54  A    between atoms: _134  and  _136
REMARK   55  A    between atoms: _136  and  _137
REMARK   56  A    between atoms: _136  and  _139
REMARK   57  A    between atoms: _139  and  _140
REMARK   58  A    between atoms: _146  and  _148
REMARK   59  A    between atoms: _148  and  _149
REMARK   60  A    between atoms: _148  and  _151
REMARK   61  A    between atoms: _151  and  _152
REMARK   62  A    between atoms: _152  and  _153
REMARK   63  A    between atoms: _153  and  _154
REMARK   64  A    between atoms: _163  and  _165
REMARK   65  A    between atoms: _165  and  _166
REMARK   66  A    between atoms: _165  and  _168
REMARK   67  A    between atoms: _168  and  _169
REMARK   68  A    between atoms: _169  and  _170
REMARK   69  A    between atoms: _173  and  _175
REMARK   70  A    between atoms: _175  and  _176
REMARK   71  A    between atoms: _179  and  _181
REMARK   72  A    between atoms: _181  and  _182
REMARK   73  A    between atoms: _181  and  _184
REMARK   74  A    between atoms: _184  and  _185
REMARK   75  A    between atoms: _188  and  _190
REMARK   76  A    between atoms: _190  and  _191
REMARK   77  A    between atoms: _190  and  _193
REMARK   78  A    between atoms: _193  and  _194
REMARK   79  A    between atoms: _197  and  _199
REMARK   80  A    between atoms: _199  and  _200
REMARK   81  A    between atoms: _199  and  _202
REMARK   82  A    between atoms: _202  and  _203
REMARK   83  A    between atoms: _206  and  _208
REMARK   84  A    between atoms: _208  and  _209
REMARK   85  A    between atoms: _208  and  _211
REMARK   86  A    between atoms: _211  and  _212
REMARK   87  A    between atoms: _217  and  _219
REMARK   88  A    between atoms: _219  and  _220
REMARK   89  A    between atoms: _219  and  _222
REMARK   90  A    between atoms: _222  and  _223
REMARK   91  A    between atoms: _226  and  _228
REMARK   92  A    between atoms: _228  and  _229
REMARK   93  A    between atoms: _228  and  _231
REMARK   94  A    between atoms: _234  and  _236
REMARK   95  A    between atoms: _236  and  _237
REMARK   96  A    between atoms: _236  and  _239
REMARK   97  A    between atoms: _239  and  _240
REMARK   98  A    between atoms: _240  and  _241
REMARK   99  A    between atoms: _241  and  _242
REMARK  100  A    between atoms: _251  and  _253
REMARK  101  A    between atoms: _253  and  _254
REMARK  102  A    between atoms: _253  and  _256
REMARK  103  A    between atoms: _256  and  _257
REMARK  104  A    between atoms: _263  and  _265
REMARK  105  A    between atoms: _265  and  _266
REMARK  106  A    between atoms: _265  and  _268
REMARK  107  A    between atoms: _268  and  _269
REMARK  108  A    between atoms: _269  and  _270
REMARK  109  A    between atoms: _272  and  _274
REMARK  110  A    between atoms: _274  and  _275
REMARK  111  A    between atoms: _274  and  _277
REMARK  112  A    between atoms: _280  and  _282
REMARK  113  A    between atoms: _282  and  _283
REMARK  114  A    between atoms: _282  and  _285
REMARK  115  A    between atoms: _285  and  _286
REMARK  116  A    between atoms: _292  and  _294
REMARK  117  A    between atoms: _294  and  _295
REMARK  118  A    between atoms: _294  and  _297
REMARK  119  A    between atoms: _297  and  _298
REMARK  120  A    between atoms: _298  and  _299
REMARK  121  A    between atoms: _302  and  _304
REMARK  122  A    between atoms: _304  and  _305
REMARK  123  A    between atoms: _304  and  _307
REMARK  124  A    between atoms: _307  and  _308
REMARK  125  A    between atoms: _313  and  _314
REMARK  126  A    between atoms: _316  and  _318
REMARK  127  A    between atoms: _318  and  _319
REMARK  128  A    between atoms: _318  and  _321
REMARK  129  A    between atoms: _321  and  _322
REMARK  130  A    between atoms: _322  and  _323
REMARK  131  A    between atoms: _325  and  _327
REMARK  132  A    between atoms: _327  and  _328
REMARK  133  A    between atoms: _327  and  _330
REMARK  134  A    between atoms: _330  and  _331
REMARK  135  A    between atoms: _331  and  _332
REMARK  136  A    between atoms: _332  and  _333
REMARK  137  A    between atoms: _342  and  _344
REMARK  138  A    between atoms: _344  and  _345
REMARK  139  A    between atoms: _344  and  _347
REMARK  140  A    between atoms: _347  and  _348
REMARK  141  A    between atoms: _353  and  _355
REMARK  142  A    between atoms: _355  and  _356
REMARK  143  A    between atoms: _358  and  _360
REMARK  144  A    between atoms: _360  and  _361
REMARK  145  A    between atoms: _360  and  _363
REMARK  146  A    between atoms: _363  and  _364
REMARK  147  A    between atoms: _367  and  _369
REMARK  148  A    between atoms: _369  and  _370
REMARK  149  A    between atoms: _369  and  _372
REMARK  150  A    between atoms: _372  and  _373
REMARK  151  A    between atoms: _376  and  _378
REMARK  152  A    between atoms: _378  and  _379
REMARK  153  A    between atoms: _381  and  _383
REMARK  154  A    between atoms: _383  and  _384
REMARK  155  A    between atoms: _383  and  _386
REMARK  156  A    between atoms: _386  and  _387
REMARK  157  A    between atoms: _387  and  _388
REMARK  158  A    between atoms: _390  and  _392
REMARK  159  A    between atoms: _392  and  _393
REMARK  160  A    between atoms: _392  and  _395
REMARK  161  A    between atoms: _395  and  _396
REMARK  162  A    between atoms: _401  and  _402
REMARK  163  A    between atoms: _404  and  _406
REMARK  164  A    between atoms: _406  and  _407
REMARK  165  A    between atoms: _406  and  _409
REMARK  166  A    between atoms: _409  and  _410
REMARK  167  A    between atoms: _413  and  _415
REMARK  168  A    between atoms: _415  and  _416
REMARK  169  A    between atoms: _415  and  _418
REMARK  170  A    between atoms: _418  and  _419
REMARK  171  A    between atoms: _425  and  _427
REMARK  172  A    between atoms: _427  and  _428
REMARK  173  A    between atoms: _427  and  _430
REMARK  174  A    between atoms: _433  and  _435
REMARK  175  A    between atoms: _435  and  _436
REMARK  176  A    between atoms: _435  and  _438
REMARK  177  A    between atoms: _438  and  _439
REMARK  178  A    between atoms: _444  and  _446
REMARK  179  A    between atoms: _446  and  _447
REMARK  180  A    between atoms: _446  and  _449
REMARK  181  A    between atoms: _449  and  _450
REMARK  182  A    between atoms: _453  and  _455
REMARK  183  A    between atoms: _455  and  _456
REMARK  184  A    between atoms: _455  and  _458
REMARK  185  A    between atoms: _458  and  _459
REMARK  186  A    between atoms: _462  and  _464
REMARK  187  A    between atoms: _464  and  _465
REMARK  188  A    between atoms: _464  and  _467
REMARK  189  A    between atoms: _467  and  _468
REMARK  190  A    between atoms: _468  and  _469
REMARK  191  A    between atoms: _469  and  _470
REMARK  192  A    between atoms: _479  and  _481
REMARK  193  A    between atoms: _481  and  _482
REMARK  194  A    between atoms: _481  and  _484
REMARK  195  A    between atoms: _484  and  _485
REMARK  196  A    between atoms: _490  and  _492
REMARK  197  A    between atoms: _492  and  _493
REMARK  198  A    between atoms: _492  and  _495
REMARK  199  A    between atoms: _497  and  _499
REMARK  200  A    between atoms: _499  and  _500
REMARK  201  A    between atoms: _499  and  _502
REMARK  202  A    between atoms: _502  and  _503
REMARK  203  A    between atoms: _506  and  _508
REMARK  204  A    between atoms: _508  and  _509
REMARK  205  A    between atoms: _508  and  _511
REMARK  206  A    between atoms: _514  and  _516
REMARK  207  A    between atoms: _516  and  _517
REMARK  208  A    between atoms: _519  and  _521
REMARK  209  A    between atoms: _521  and  _522
REMARK  210  A    between atoms: _521  and  _524
REMARK  211  A    between atoms: _524  and  _525
REMARK  212  A    between atoms: _525  and  _526
REMARK  213  A    between atoms: _526  and  _527
REMARK  214  A    between atoms: _527  and  _528
REMARK  215  A    between atoms: _532  and  _534
REMARK  216  A    between atoms: _534  and  _535
REMARK  217  A    between atoms: _534  and  _537
REMARK  218  A    between atoms: _537  and  _538
REMARK  219  A    between atoms: _541  and  _543
REMARK  220  A    between atoms: _543  and  _544
REMARK  221  A    between atoms: _546  and  _548
REMARK  222  A    between atoms: _548  and  _549
REMARK  223  A    between atoms: _548  and  _551
REMARK  224  A    between atoms: _551  and  _552
REMARK  225  A    between atoms: _555  and  _557
REMARK  226  A    between atoms: _557  and  _558
REMARK  227  A    between atoms: _557  and  _560
REMARK  228  A    between atoms: _560  and  _561
REMARK  229  A    between atoms: _567  and  _569
REMARK  230  A    between atoms: _569  and  _570
REMARK  231  A    between atoms: _572  and  _574
REMARK  232  A    between atoms: _574  and  _575
REMARK  233  A    between atoms: _574  and  _577
REMARK  234  A    between atoms: _577  and  _578
REMARK  235  A    between atoms: _578  and  _579
REMARK  236  A    between atoms: _581  and  _583
REMARK  237  A    between atoms: _583  and  _584
REMARK  238  A    between atoms: _583  and  _586
REMARK  239  A    between atoms: _586  and  _587
REMARK  240  A    between atoms: _589  and  _591
REMARK  241  A    between atoms: _591  and  _592
REMARK  242  A    between atoms: _591  and  _594
REMARK  243  A    between atoms: _594  and  _595
REMARK  244  A    between atoms: _598  and  _600
REMARK  245  A    between atoms: _600  and  _601
REMARK  246  A    between atoms: _600  and  _603
REMARK  247  A    between atoms: _603  and  _604
REMARK  248  A    between atoms: _609  and  _610
REMARK                            x       y       z     vdW  Elec       q    Type
REMARK                         _______ _______ _______ _____ _____    ______ ____
ROOT
ATOM      1  O   HOH     1      33.472 -32.075 -13.674  0.00  0.00    +0.000 OA
ENDROOT
TORSDOF 0
REMARK  Name = ../refined-set-2016/4pmm/4pmm_pocket.pdb
REMARK  248 active torsions:
REMARK  status: ('A' for Active; 'I' for Inactive)
REMARK    1  A    between atoms: _1  and  _3
REMARK    2  A    between atoms: _3  and  _4
REMARK    3  A    between atoms: _3  and  _6
REMARK    4  A    between atoms: _6  and  _7
REMARK    5  A    between atoms: _17  and  _19
REMARK    6  A    between atoms: _19  and  _20
REMARK    7  A    between atoms: _19  and  _22
REMARK    8  A    between atoms: _22  and  _23
REMARK    9  A    between atoms: _26  and  _28
REMARK   10  A    between atoms: _28  and  _29
REMARK   11  A    between atoms: _31  and  _33
REMARK   12  A    between atoms: _33  and  _34
REMARK   13  A    between atoms: _36  and  _38
REMARK   14  A    between atoms: _38  and  _39
REMARK   15  A    between atoms: _38  and  _41
REMARK   16  A    between atoms: _41  and  _42
REMARK   17  A    between atoms: _42  and  _43
REMARK   18  A    between atoms: _43  and  _44
REMARK   19  A    between atoms: _44  and  _45
REMARK   20  A    between atoms: _49  and  _51
REMARK   21  A    between atoms: _51  and  _52
REMARK   22  A    between atoms: _51  and  _54
REMARK   23  A    between atoms: _57  and  _59
REMARK   24  A    between atoms: _59  and  _60
REMARK   25  A    between atoms: _59  and  _62
REMARK   26  A    between atoms: _62  and  _63
REMARK   27  A    between atoms: _69  and  _71
REMARK   28  A    between atoms: _71  and  _72
REMARK   29  A    between atoms: _71  and  _74
REMARK   30  A    between atoms: _74  and  _75
REMARK   31  A    between atoms: _78  and  _80
REMARK   32  A    between atoms: _80  and  _81
REMARK   33  A    between atoms: _84  and  _86
REMARK   34  A    between atoms: _86  and  _87
REMARK   35  A    between atoms: _86  and  _89
REMARK   36  A    between atoms: _92  and  _94
REMARK   37  A    between atoms: _94  and  _95
REMARK   38  A    between atoms: _98  and  _100
REMARK   39  A    between atoms: _100  and  _101
REMARK   40  A    between atoms: _100  and  _103
REMARK   41  A    between atoms: _106  and  _108
REMARK   42  A    between atoms: _108  and  _109
REMARK   43  A    between atoms: _108  and  _111
REMARK   44  A    between atoms: _111  and  _112
REMARK   45  A    between atoms: _112  and  _113
REMARK   46  A    between atoms: _113  and  _114
REMARK   47  A    between atoms: _114  and  _115
REMARK   48  A    between atoms: _119  and  _121
REMARK   49  A    between atoms: _121  and  _122
REMARK   50  A    between atoms: _125  and  _127
REMARK   51  A    between atoms: _127  and  _128
REMARK   52  A    between atoms: _127  and  _130
REMARK   53  A    between atoms: _130  and  _131
REMARK   54  A    between atoms: _134  and  _136
REMARK   55  A    between atoms: _136  and  _137
REMARK   56  A    between atoms: _136  and  _139
REMARK   57  A    between atoms: _139  and  _140
REMARK   58  A    between atoms: _146  and  _148
REMARK   59  A    between atoms: _148  and  _149
REMARK   60  A    between atoms: _148  and  _151
REMARK   61  A    between atoms: _151  and  _152
REMARK   62  A    between atoms: _152  and  _153
REMARK   63  A    between atoms: _153  and  _154
REMARK   64  A    between atoms: _163  and  _165
REMARK   65  A    between atoms: _165  and  _166
REMARK   66  A    between atoms: _165  and  _168
REMARK   67  A    between atoms: _168  and  _169
REMARK   68  A    between atoms: _169  and  _170
REMARK   69  A    between atoms: _173  and  _175
REMARK   70  A    between atoms: _175  and  _176
REMARK   71  A    between atoms: _179  and  _181
REMARK   72  A    between atoms: _181  and  _182
REMARK   73  A    between atoms: _181  and  _184
REMARK   74  A    between atoms: _184  and  _185
REMARK   75  A    between atoms: _188  and  _190
REMARK   76  A    between atoms: _190  and  _191
REMARK   77  A    between atoms: _190  and  _193
REMARK   78  A    between atoms: _193  and  _194
REMARK   79  A    between atoms: _197  and  _199
REMARK   80  A    between atoms: _199  and  _200
REMARK   81  A    between atoms: _199  and  _202
REMARK   82  A    between atoms: _202  and  _203
REMARK   83  A    between atoms: _206  and  _208
REMARK   84  A    between atoms: _208  and  _209
REMARK   85  A    between atoms: _208  and  _211
REMARK   86  A    between atoms: _211  and  _212
REMARK   87  A    between atoms: _217  and  _219
REMARK   88  A    between atoms: _219  and  _220
REMARK   89  A    between atoms: _219  and  _222
REMARK   90  A    between atoms: _222  and  _223
REMARK   91  A    between atoms: _226  and  _228
REMARK   92  A    between atoms: _228  and  _229
REMARK   93  A    between atoms: _228  and  _231
REMARK   94  A    between atoms: _234  and  _236
REMARK   95  A    between atoms: _236  and  _237
REMARK   96  A    between atoms: _236  and  _239
REMARK   97  A    between atoms: _239  and  _240
REMARK   98  A    between atoms: _240  and  _241
REMARK   99  A    between atoms: _241  and  _242
REMARK  100  A    between atoms: _251  and  _253
REMARK  101  A    between atoms: _253  and  _254
REMARK  102  A    between atoms: _253  and  _256
REMARK  103  A    between atoms: _256  and  _257
REMARK  104  A    between atoms: _263  and  _265
REMARK  105  A    between atoms: _265  and  _266
REMARK  106  A    between atoms: _265  and  _268
REMARK  107  A    between atoms: _268  and  _269
REMARK  108  A    between atoms: _269  and  _270
REMARK  109  A    between atoms: _272  and  _274
REMARK  110  A    between atoms: _274  and  _275
REMARK  111  A    between atoms: _274  and  _277
REMARK  112  A    between atoms: _280  and  _282
REMARK  113  A    between atoms: _282  and  _283
REMARK  114  A    between atoms: _282  and  _285
REMARK  115  A    between atoms: _285  and  _286
REMARK  116  A    between atoms: _292  and  _294
REMARK  117  A    between atoms: _294  and  _295
REMARK  118  A    between atoms: _294  and  _297
REMARK  119  A    between atoms: _297  and  _298
REMARK  120  A    between atoms: _298  and  _299
REMARK  121  A    between atoms: _302  and  _304
REMARK  122  A    between atoms: _304  and  _305
REMARK  123  A    between atoms: _304  and  _307
REMARK  124  A    between atoms: _307  and  _308
REMARK  125  A    between atoms: _313  and  _314
REMARK  126  A    between atoms: _316  and  _318
REMARK  127  A    between atoms: _318  and  _319
REMARK  128  A    between atoms: _318  and  _321
REMARK  129  A    between atoms: _321  and  _322
REMARK  130  A    between atoms: _322  and  _323
REMARK  131  A    between atoms: _325  and  _327
REMARK  132  A    between atoms: _327  and  _328
REMARK  133  A    between atoms: _327  and  _330
REMARK  134  A    between atoms: _330  and  _331
REMARK  135  A    between atoms: _331  and  _332
REMARK  136  A    between atoms: _332  and  _333
REMARK  137  A    between atoms: _342  and  _344
REMARK  138  A    between atoms: _344  and  _345
REMARK  139  A    between atoms: _344  and  _347
REMARK  140  A    between atoms: _347  and  _348
REMARK  141  A    between atoms: _353  and  _355
REMARK  142  A    between atoms: _355  and  _356
REMARK  143  A    between atoms: _358  and  _360
REMARK  144  A    between atoms: _360  and  _361
REMARK  145  A    between atoms: _360  and  _363
REMARK  146  A    between atoms: _363  and  _364
REMARK  147  A    between atoms: _367  and  _369
REMARK  148  A    between atoms: _369  and  _370
REMARK  149  A    between atoms: _369  and  _372
REMARK  150  A    between atoms: _372  and  _373
REMARK  151  A    between atoms: _376  and  _378
REMARK  152  A    between atoms: _378  and  _379
REMARK  153  A    between atoms: _381  and  _383
REMARK  154  A    between atoms: _383  and  _384
REMARK  155  A    between atoms: _383  and  _386
REMARK  156  A    between atoms: _386  and  _387
REMARK  157  A    between atoms: _387  and  _388
REMARK  158  A    between atoms: _390  and  _392
REMARK  159  A    between atoms: _392  and  _393
REMARK  160  A    between atoms: _392  and  _395
REMARK  161  A    between atoms: _395  and  _396
REMARK  162  A    between atoms: _401  and  _402
REMARK  163  A    between atoms: _404  and  _406
REMARK  164  A    between atoms: _406  and  _407
REMARK  165  A    between atoms: _406  and  _409
REMARK  166  A    between atoms: _409  and  _410
REMARK  167  A    between atoms: _413  and  _415
REMARK  168  A    between atoms: _415  and  _416
REMARK  169  A    between atoms: _415  and  _418
REMARK  170  A    between atoms: _418  and  _419
REMARK  171  A    between atoms: _425  and  _427
REMARK  172  A    between atoms: _427  and  _428
REMARK  173  A    between atoms: _427  and  _430
REMARK  174  A    between atoms: _433  and  _435
REMARK  175  A    between atoms: _435  and  _436
REMARK  176  A    between atoms: _435  and  _438
REMARK  177  A    between atoms: _438  and  _439
REMARK  178  A    between atoms: _444  and  _446
REMARK  179  A    between atoms: _446  and  _447
REMARK  180  A    between atoms: _446  and  _449
REMARK  181  A    between atoms: _449  and  _450
REMARK  182  A    between atoms: _453  and  _455
REMARK  183  A    between atoms: _455  and  _456
REMARK  184  A    between atoms: _455  and  _458
REMARK  185  A    between atoms: _458  and  _459
REMARK  186  A    between atoms: _462  and  _464
REMARK  187  A    between atoms: _464  and  _465
REMARK  188  A    between atoms: _464  and  _467
REMARK  189  A    between atoms: _467  and  _468
REMARK  190  A    between atoms: _468  and  _469
REMARK  191  A    between atoms: _469  and  _470
REMARK  192  A    between atoms: _479  and  _481
REMARK  193  A    between atoms: _481  and  _482
REMARK  194  A    between atoms: _481  and  _484
REMARK  195  A    between atoms: _484  and  _485
REMARK  196  A    between atoms: _490  and  _492
REMARK  197  A    between atoms: _492  and  _493
REMARK  198  A    between atoms: _492  and  _495
REMARK  199  A    between atoms: _497  and  _499
REMARK  200  A    between atoms: _499  and  _500
REMARK  201  A    between atoms: _499  and  _502
REMARK  202  A    between atoms: _502  and  _503
REMARK  203  A    between atoms: _506  and  _508
REMARK  204  A    between atoms: _508  and  _509
REMARK  205  A    between atoms: _508  and  _511
REMARK  206  A    between atoms: _514  and  _516
REMARK  207  A    between atoms: _516  and  _517
REMARK  208  A    between atoms: _519  and  _521
REMARK  209  A    between atoms: _521  and  _522
REMARK  210  A    between atoms: _521  and  _524
REMARK  211  A    between atoms: _524  and  _525
REMARK  212  A    between atoms: _525  and  _526
REMARK  213  A    between atoms: _526  and  _527
REMARK  214  A    between atoms: _527  and  _528
REMARK  215  A    between atoms: _532  and  _534
REMARK  216  A    between atoms: _534  and  _535
REMARK  217  A    between atoms: _534  and  _537
REMARK  218  A    between atoms: _537  and  _538
REMARK  219  A    between atoms: _541  and  _543
REMARK  220  A    between atoms: _543  and  _544
REMARK  221  A    between atoms: _546  and  _548
REMARK  222  A    between atoms: _548  and  _549
REMARK  223  A    between atoms: _548  and  _551
REMARK  224  A    between atoms: _551  and  _552
REMARK  225  A    between atoms: _555  and  _557
REMARK  226  A    between atoms: _557  and  _558
REMARK  227  A    between atoms: _557  and  _560
REMARK  228  A    between atoms: _560  and  _561
REMARK  229  A    between atoms: _567  and  _569
REMARK  230  A    between atoms: _569  and  _570
REMARK  231  A    between atoms: _572  and  _574
REMARK  232  A    between atoms: _574  and  _575
REMARK  233  A    between atoms: _574  and  _577
REMARK  234  A    between atoms: _577  and  _578
REMARK  235  A    between atoms: _578  and  _579
REMARK  236  A    between atoms: _581  and  _583
REMARK  237  A    between atoms: _583  and  _584
REMARK  238  A    between atoms: _583  and  _586
REMARK  239  A    between atoms: _586  and  _587
REMARK  240  A    between atoms: _589  and  _591
REMARK  241  A    between atoms: _591  and  _592
REMARK  242  A    between atoms: _591  and  _594
REMARK  243  A    between atoms: _594  and  _595
REMARK  244  A    between atoms: _598  and  _600
REMARK  245  A    between atoms: _600  and  _601
REMARK  246  A    between atoms: _600  and  _603
REMARK  247  A    between atoms: _603  and  _604
REMARK  248  A    between atoms: _609  and  _610
REMARK                            x       y       z     vdW  Elec       q    Type
REMARK                         _______ _______ _______ _____ _____    ______ ____
ROOT
ATOM      1  O   HOH     1      32.342 -26.591 -13.555  0.00  0.00    +0.000 OA
ENDROOT
TORSDOF 0
