REMARK  Name = ../refined-set-2016/1g48/1g48_pocket.pdb
REMARK  162 active torsions:
REMARK  status: ('A' for Active; 'I' for Inactive)
REMARK    1  A    between atoms: _1  and  _3
REMARK    2  A    between atoms: _3  and  _4
REMARK    3  A    between atoms: _3  and  _6
REMARK    4  A    between atoms: _6  and  _7
REMARK    5  A    between atoms: _17  and  _19
REMARK    6  A    between atoms: _19  and  _20
REMARK    7  A    between atoms: _19  and  _22
REMARK    8  A    between atoms: _22  and  _23
REMARK    9  A    between atoms: _28  and  _29
REMARK   10  A    between atoms: _31  and  _33
REMARK   11  A    between atoms: _33  and  _34
REMARK   12  A    between atoms: _33  and  _36
REMARK   13  A    between atoms: _36  and  _37
REMARK   14  A    between atoms: _43  and  _45
REMARK   15  A    between atoms: _45  and  _46
REMARK   16  A    between atoms: _45  and  _48
REMARK   17  A    between atoms: _48  and  _49
REMARK   18  A    between atoms: _52  and  _53
REMARK   19  A    between atoms: _58  and  _60
REMARK   20  A    between atoms: _60  and  _61
REMARK   21  A    between atoms: _60  and  _63
REMARK   22  A    between atoms: _63  and  _64
REMARK   23  A    between atoms: _69  and  _71
REMARK   24  A    between atoms: _71  and  _72
REMARK   25  A    between atoms: _75  and  _77
REMARK   26  A    between atoms: _77  and  _78
REMARK   27  A    between atoms: _77  and  _80
REMARK   28  A    between atoms: _80  and  _81
REMARK   29  A    between atoms: _86  and  _88
REMARK   30  A    between atoms: _88  and  _89
REMARK   31  A    between atoms: _88  and  _91
REMARK   32  A    between atoms: _91  and  _92
REMARK   33  A    between atoms: _95  and  _97
REMARK   34  A    between atoms: _97  and  _98
REMARK   35  A    between atoms: _97  and  _100
REMARK   36  A    between atoms: _100  and  _101
REMARK   37  A    between atoms: _101  and  _102
REMARK   38  A    between atoms: _107  and  _109
REMARK   39  A    between atoms: _109  and  _110
REMARK   40  A    between atoms: _109  and  _112
REMARK   41  A    between atoms: _112  and  _113
REMARK   42  A    between atoms: _119  and  _121
REMARK   43  A    between atoms: _132  and  _135
REMARK   44  A    between atoms: _135  and  _136
REMARK   45  A    between atoms: _144  and  _145
REMARK   46  A    between atoms: _153  and  _155
REMARK   47  A    between atoms: _155  and  _156
REMARK   48  A    between atoms: _155  and  _158
REMARK   49  A    between atoms: _158  and  _159
REMARK   50  A    between atoms: _159  and  _160
REMARK   51  A    between atoms: _163  and  _165
REMARK   52  A    between atoms: _165  and  _166
REMARK   53  A    between atoms: _165  and  _168
REMARK   54  A    between atoms: _168  and  _169
REMARK   55  A    between atoms: _174  and  _176
REMARK   56  A    between atoms: _176  and  _177
REMARK   57  A    between atoms: _176  and  _179
REMARK   58  A    between atoms: _179  and  _180
REMARK   59  A    between atoms: _180  and  _181
REMARK   60  A    between atoms: _184  and  _186
REMARK   61  A    between atoms: _186  and  _187
REMARK   62  A    between atoms: _186  and  _189
REMARK   63  A    between atoms: _189  and  _190
REMARK   64  A    between atoms: _193  and  _195
REMARK   65  A    between atoms: _195  and  _196
REMARK   66  A    between atoms: _195  and  _198
REMARK   67  A    between atoms: _198  and  _199
REMARK   68  A    between atoms: _200  and  ZN_447
REMARK   69  A    between atoms: _204  and  _206
REMARK   70  A    between atoms: _206  and  _207
REMARK   71  A    between atoms: _206  and  _209
REMARK   72  A    between atoms: _209  and  _210
REMARK   73  A    between atoms: _213  and  _215
REMARK   74  A    between atoms: _215  and  _216
REMARK   75  A    between atoms: _215  and  _218
REMARK   76  A    between atoms: _221  and  _223
REMARK   77  A    between atoms: _223  and  _224
REMARK   78  A    between atoms: _223  and  _226
REMARK   79  A    between atoms: _226  and  _227
REMARK   80  A    between atoms: _232  and  _234
REMARK   81  A    between atoms: _234  and  _235
REMARK   82  A    between atoms: _234  and  _237
REMARK   83  A    between atoms: _240  and  _242
REMARK   84  A    between atoms: _242  and  _243
REMARK   85  A    between atoms: _245  and  _247
REMARK   86  A    between atoms: _247  and  _248
REMARK   87  A    between atoms: _247  and  _250
REMARK   88  A    between atoms: _250  and  _251
REMARK   89  A    between atoms: _251  and  _252
REMARK   90  A    between atoms: _252  and  _253
REMARK   91  A    between atoms: _253  and  _254
REMARK   92  A    between atoms: _258  and  _260
REMARK   93  A    between atoms: _260  and  _261
REMARK   94  A    between atoms: _264  and  _266
REMARK   95  A    between atoms: _266  and  _267
REMARK   96  A    between atoms: _266  and  _269
REMARK   97  A    between atoms: _272  and  _274
REMARK   98  A    between atoms: _274  and  _275
REMARK   99  A    between atoms: _274  and  _277
REMARK  100  A    between atoms: _277  and  _278
REMARK  101  A    between atoms: _278  and  _279
REMARK  102  A    between atoms: _284  and  _286
REMARK  103  A    between atoms: _286  and  _287
REMARK  104  A    between atoms: _286  and  _289
REMARK  105  A    between atoms: _289  and  _290
REMARK  106  A    between atoms: _293  and  _295
REMARK  107  A    between atoms: _295  and  _296
REMARK  108  A    between atoms: _299  and  _301
REMARK  109  A    between atoms: _301  and  _302
REMARK  110  A    between atoms: _301  and  _304
REMARK  111  A    between atoms: _307  and  _309
REMARK  112  A    between atoms: _309  and  _310
REMARK  113  A    between atoms: _309  and  _312
REMARK  114  A    between atoms: _312  and  _313
REMARK  115  A    between atoms: _316  and  _318
REMARK  116  A    between atoms: _318  and  _319
REMARK  117  A    between atoms: _321  and  _323
REMARK  118  A    between atoms: _323  and  _324
REMARK  119  A    between atoms: _323  and  _326
REMARK  120  A    between atoms: _326  and  _327
REMARK  121  A    between atoms: _329  and  _331
REMARK  122  A    between atoms: _331  and  _332
REMARK  123  A    between atoms: _331  and  _334
REMARK  124  A    between atoms: _334  and  _335
REMARK  125  A    between atoms: _338  and  _340
REMARK  126  A    between atoms: _340  and  _341
REMARK  127  A    between atoms: _340  and  _343
REMARK  128  A    between atoms: _343  and  _344
REMARK  129  A    between atoms: _347  and  _349
REMARK  130  A    between atoms: _349  and  _350
REMARK  131  A    between atoms: _349  and  _352
REMARK  132  A    between atoms: _352  and  _353
REMARK  133  A    between atoms: _357  and  _358
REMARK  134  A    between atoms: _364  and  _365
REMARK  135  A    between atoms: _370  and  _372
REMARK  136  A    between atoms: _372  and  _373
REMARK  137  A    between atoms: _372  and  _375
REMARK  138  A    between atoms: _375  and  _376
REMARK  139  A    between atoms: _379  and  _381
REMARK  140  A    between atoms: _381  and  _382
REMARK  141  A    between atoms: _381  and  _384
REMARK  142  A    between atoms: _384  and  _385
REMARK  143  A    between atoms: _388  and  _390
REMARK  144  A    between atoms: _390  and  _391
REMARK  145  A    between atoms: _390  and  _393
REMARK  146  A    between atoms: _395  and  _397
REMARK  147  A    between atoms: _397  and  _398
REMARK  148  A    between atoms: _397  and  _400
REMARK  149  A    between atoms: _403  and  _405
REMARK  150  A    between atoms: _405  and  _406
REMARK  151  A    between atoms: _405  and  _408
REMARK  152  A    between atoms: _408  and  _409
REMARK  153  A    between atoms: _419  and  _421
REMARK  154  A    between atoms: _421  and  _422
REMARK  155  A    between atoms: _421  and  _424
REMARK  156  A    between atoms: _424  and  _425
REMARK  157  A    between atoms: _430  and  _432
REMARK  158  A    between atoms: _432  and  _433
REMARK  159  A    between atoms: _432  and  _435
REMARK  160  A    between atoms: _435  and  _436
REMARK  161  A    between atoms: _436  and  _437
REMARK  162  A    between atoms: _437  and  _438
REMARK                            x       y       z     vdW  Elec       q    Type
REMARK                         _______ _______ _______ _____ _____    ______ ____
ROOT
ATOM      1  CG  TRP A   1       5.666   0.159  12.162  0.00  0.00    -0.002 A 
ATOM      2  CD2 TRP A   1       4.314  -0.306  12.068  0.00  0.00    +0.013 A 
ATOM      3  CE3 TRP A   1       3.703  -1.556  12.236  0.00  0.00    +0.001 A 
ATOM      4  CZ3 TRP A   1       2.333  -1.656  12.071  0.00  0.00    +0.000 A 
ATOM      5  CH2 TRP A   1       1.556  -0.529  11.738  0.00  0.00    +0.001 A 
ATOM      6  CZ2 TRP A   1       2.125   0.706  11.564  0.00  0.00    +0.017 A 
ATOM      7  CE2 TRP A   1       3.511   0.808  11.732  0.00  0.00    +0.056 A 
ATOM      8  NE1 TRP A   1       4.339   1.900  11.631  0.00  0.00    -0.352 N 
ATOM      9  HE1 TRP A   1       4.038   2.868  11.397  0.00  0.00    +0.166 HD
ATOM     10  CD1 TRP A   1       5.630   1.506  11.889  0.00  0.00    +0.068 A 
ENDROOT
BRANCH   1  11
ATOM     11  CB  TRP A   1       6.880  -0.675  12.501  0.00  0.00    +0.053 C 
BRANCH  11  12
ATOM     12  CA  TRP A   1       7.583  -1.314  11.292  0.00  0.00    +0.137 C 
BRANCH  12  13
ATOM     13  N   TRP A   1       8.250  -0.291  10.490  0.00  0.00    -0.239 NA
ATOM     14  H   TRP A   1       8.044   0.713  10.669  0.00  0.00    +0.142 HD
ENDBRANCH  12  13
BRANCH  12  15
ATOM     15  C   TRP A   1       6.603  -2.188  10.501  0.00  0.00    +0.224 C 
ATOM     16  O   TRP A   1       6.039  -1.748   9.485  0.00  0.00    -0.287 OA
ENDBRANCH  12  15
ENDBRANCH  11  12
ENDBRANCH   1  11
TORSDOF 4
REMARK  Name = ../refined-set-2016/1g48/1g48_pocket.pdb
REMARK  162 active torsions:
REMARK  status: ('A' for Active; 'I' for Inactive)
REMARK    1  A    between atoms: _1  and  _3
REMARK    2  A    between atoms: _3  and  _4
REMARK    3  A    between atoms: _3  and  _6
REMARK    4  A    between atoms: _6  and  _7
REMARK    5  A    between atoms: _17  and  _19
REMARK    6  A    between atoms: _19  and  _20
REMARK    7  A    between atoms: _19  and  _22
REMARK    8  A    between atoms: _22  and  _23
REMARK    9  A    between atoms: _28  and  _29
REMARK   10  A    between atoms: _31  and  _33
REMARK   11  A    between atoms: _33  and  _34
REMARK   12  A    between atoms: _33  and  _36
REMARK   13  A    between atoms: _36  and  _37
REMARK   14  A    between atoms: _43  and  _45
REMARK   15  A    between atoms: _45  and  _46
REMARK   16  A    between atoms: _45  and  _48
REMARK   17  A    between atoms: _48  and  _49
REMARK   18  A    between atoms: _52  and  _53
REMARK   19  A    between atoms: _58  and  _60
REMARK   20  A    between atoms: _60  and  _61
REMARK   21  A    between atoms: _60  and  _63
REMARK   22  A    between atoms: _63  and  _64
REMARK   23  A    between atoms: _69  and  _71
REMARK   24  A    between atoms: _71  and  _72
REMARK   25  A    between atoms: _75  and  _77
REMARK   26  A    between atoms: _77  and  _78
REMARK   27  A    between atoms: _77  and  _80
REMARK   28  A    between atoms: _80  and  _81
REMARK   29  A    between atoms: _86  and  _88
REMARK   30  A    between atoms: _88  and  _89
REMARK   31  A    between atoms: _88  and  _91
REMARK   32  A    between atoms: _91  and  _92
REMARK   33  A    between atoms: _95  and  _97
REMARK   34  A    between atoms: _97  and  _98
REMARK   35  A    between atoms: _97  and  _100
REMARK   36  A    between atoms: _100  and  _101
REMARK   37  A    between atoms: _101  and  _102
REMARK   38  A    between atoms: _107  and  _109
REMARK   39  A    between atoms: _109  and  _110
REMARK   40  A    between atoms: _109  and  _112
REMARK   41  A    between atoms: _112  and  _113
REMARK   42  A    between atoms: _119  and  _121
REMARK   43  A    between atoms: _132  and  _135
REMARK   44  A    between atoms: _135  and  _136
REMARK   45  A    between atoms: _144  and  _145
REMARK   46  A    between atoms: _153  and  _155
REMARK   47  A    between atoms: _155  and  _156
REMARK   48  A    between atoms: _155  and  _158
REMARK   49  A    between atoms: _158  and  _159
REMARK   50  A    between atoms: _159  and  _160
REMARK   51  A    between atoms: _163  and  _165
REMARK   52  A    between atoms: _165  and  _166
REMARK   53  A    between atoms: _165  and  _168
REMARK   54  A    between atoms: _168  and  _169
REMARK   55  A    between atoms: _174  and  _176
REMARK   56  A    between atoms: _176  and  _177
REMARK   57  A    between atoms: _176  and  _179
REMARK   58  A    between atoms: _179  and  _180
REMARK   59  A    between atoms: _180  and  _181
REMARK   60  A    between atoms: _184  and  _186
REMARK   61  A    between atoms: _186  and  _187
REMARK   62  A    between atoms: _186  and  _189
REMARK   63  A    between atoms: _189  and  _190
REMARK   64  A    between atoms: _193  and  _195
REMARK   65  A    between atoms: _195  and  _196
REMARK   66  A    between atoms: _195  and  _198
REMARK   67  A    between atoms: _198  and  _199
REMARK   68  A    between atoms: _200  and  ZN_447
REMARK   69  A    between atoms: _204  and  _206
REMARK   70  A    between atoms: _206  and  _207
REMARK   71  A    between atoms: _206  and  _209
REMARK   72  A    between atoms: _209  and  _210
REMARK   73  A    between atoms: _213  and  _215
REMARK   74  A    between atoms: _215  and  _216
REMARK   75  A    between atoms: _215  and  _218
REMARK   76  A    between atoms: _221  and  _223
REMARK   77  A    between atoms: _223  and  _224
REMARK   78  A    between atoms: _223  and  _226
REMARK   79  A    between atoms: _226  and  _227
REMARK   80  A    between atoms: _232  and  _234
REMARK   81  A    between atoms: _234  and  _235
REMARK   82  A    between atoms: _234  and  _237
REMARK   83  A    between atoms: _240  and  _242
REMARK   84  A    between atoms: _242  and  _243
REMARK   85  A    between atoms: _245  and  _247
REMARK   86  A    between atoms: _247  and  _248
REMARK   87  A    between atoms: _247  and  _250
REMARK   88  A    between atoms: _250  and  _251
REMARK   89  A    between atoms: _251  and  _252
REMARK   90  A    between atoms: _252  and  _253
REMARK   91  A    between atoms: _253  and  _254
REMARK   92  A    between atoms: _258  and  _260
REMARK   93  A    between atoms: _260  and  _261
REMARK   94  A    between atoms: _264  and  _266
REMARK   95  A    between atoms: _266  and  _267
REMARK   96  A    between atoms: _266  and  _269
REMARK   97  A    between atoms: _272  and  _274
REMARK   98  A    between atoms: _274  and  _275
REMARK   99  A    between atoms: _274  and  _277
REMARK  100  A    between atoms: _277  and  _278
REMARK  101  A    between atoms: _278  and  _279
REMARK  102  A    between atoms: _284  and  _286
REMARK  103  A    between atoms: _286  and  _287
REMARK  104  A    between atoms: _286  and  _289
REMARK  105  A    between atoms: _289  and  _290
REMARK  106  A    between atoms: _293  and  _295
REMARK  107  A    between atoms: _295  and  _296
REMARK  108  A    between atoms: _299  and  _301
REMARK  109  A    between atoms: _301  and  _302
REMARK  110  A    between atoms: _301  and  _304
REMARK  111  A    between atoms: _307  and  _309
REMARK  112  A    between atoms: _309  and  _310
REMARK  113  A    between atoms: _309  and  _312
REMARK  114  A    between atoms: _312  and  _313
REMARK  115  A    between atoms: _316  and  _318
REMARK  116  A    between atoms: _318  and  _319
REMARK  117  A    between atoms: _321  and  _323
REMARK  118  A    between atoms: _323  and  _324
REMARK  119  A    between atoms: _323  and  _326
REMARK  120  A    between atoms: _326  and  _327
REMARK  121  A    between atoms: _329  and  _331
REMARK  122  A    between atoms: _331  and  _332
REMARK  123  A    between atoms: _331  and  _334
REMARK  124  A    between atoms: _334  and  _335
REMARK  125  A    between atoms: _338  and  _340
REMARK  126  A    between atoms: _340  and  _341
REMARK  127  A    between atoms: _340  and  _343
REMARK  128  A    between atoms: _343  and  _344
REMARK  129  A    between atoms: _347  and  _349
REMARK  130  A    between atoms: _349  and  _350
REMARK  131  A    between atoms: _349  and  _352
REMARK  132  A    between atoms: _352  and  _353
REMARK  133  A    between atoms: _357  and  _358
REMARK  134  A    between atoms: _364  and  _365
REMARK  135  A    between atoms: _370  and  _372
REMARK  136  A    between atoms: _372  and  _373
REMARK  137  A    between atoms: _372  and  _375
REMARK  138  A    between atoms: _375  and  _376
REMARK  139  A    between atoms: _379  and  _381
REMARK  140  A    between atoms: _381  and  _382
REMARK  141  A    between atoms: _381  and  _384
REMARK  142  A    between atoms: _384  and  _385
REMARK  143  A    between atoms: _388  and  _390
REMARK  144  A    between atoms: _390  and  _391
REMARK  145  A    between atoms: _390  and  _393
REMARK  146  A    between atoms: _395  and  _397
REMARK  147  A    between atoms: _397  and  _398
REMARK  148  A    between atoms: _397  and  _400
REMARK  149  A    between atoms: _403  and  _405
REMARK  150  A    between atoms: _405  and  _406
REMARK  151  A    between atoms: _405  and  _408
REMARK  152  A    between atoms: _408  and  _409
REMARK  153  A    between atoms: _419  and  _421
REMARK  154  A    between atoms: _421  and  _422
REMARK  155  A    between atoms: _421  and  _424
REMARK  156  A    between atoms: _424  and  _425
REMARK  157  A    between atoms: _430  and  _432
REMARK  158  A    between atoms: _432  and  _433
REMARK  159  A    between atoms: _432  and  _435
REMARK  160  A    between atoms: _435  and  _436
REMARK  161  A    between atoms: _436  and  _437
REMARK  162  A    between atoms: _437  and  _438
REMARK                            x       y       z     vdW  Elec       q    Type
REMARK                         _______ _______ _______ _____ _____    ______ ____
ROOT
ATOM      1  CG  TYR A   1       1.934  -6.953  12.002  0.00  0.00    -0.020 A 
ATOM      2  CD2 TYR A   1       1.546  -6.917  13.348  0.00  0.00    -0.001 A 
ATOM      3  CE2 TYR A   1       0.714  -5.900  13.831  0.00  0.00    +0.036 A 
ATOM      4  CZ  TYR A   1       0.262  -4.909  12.953  0.00  0.00    +0.134 A 
ATOM      5  CE1 TYR A   1       0.635  -4.928  11.612  0.00  0.00    +0.036 A 
ATOM      6  CD1 TYR A   1       1.469  -5.949  11.145  0.00  0.00    -0.001 A 
ENDROOT
BRANCH   4   7
ATOM      7  OH  TYR A   1      -0.559  -3.911  13.421  0.00  0.00    -0.506 OA
ATOM      8  HH  TYR A   1      -0.724  -4.047  14.388  0.00  0.00    +0.292 HD
ENDBRANCH   4   7
BRANCH   1   9
ATOM      9  CB  TYR A   1       2.843  -8.043  11.496  0.00  0.00    +0.051 C 
BRANCH   9  10
ATOM     10  CA  TYR A   1       4.333  -7.732  11.668  0.00  0.00    +0.137 C 
BRANCH  10  11
ATOM     11  N   TYR A   1       4.733  -6.603  10.827  0.00  0.00    -0.239 NA
ATOM     12  H   TYR A   1       4.754  -6.727   9.795  0.00  0.00    +0.142 HD
ENDBRANCH  10  11
BRANCH  10  13
ATOM     13  C   TYR A   1       5.168  -8.973  11.359  0.00  0.00    +0.224 C 
ATOM     14  O   TYR A   1       4.842 -10.083  11.787  0.00  0.00    -0.287 OA
ENDBRANCH  10  13
ENDBRANCH   9  10
ENDBRANCH   1   9
TORSDOF 5
REMARK  Name = ../refined-set-2016/1g48/1g48_pocket.pdb
REMARK  162 active torsions:
REMARK  status: ('A' for Active; 'I' for Inactive)
REMARK    1  A    between atoms: _1  and  _3
REMARK    2  A    between atoms: _3  and  _4
REMARK    3  A    between atoms: _3  and  _6
REMARK    4  A    between atoms: _6  and  _7
REMARK    5  A    between atoms: _17  and  _19
REMARK    6  A    between atoms: _19  and  _20
REMARK    7  A    between atoms: _19  and  _22
REMARK    8  A    between atoms: _22  and  _23
REMARK    9  A    between atoms: _28  and  _29
REMARK   10  A    between atoms: _31  and  _33
REMARK   11  A    between atoms: _33  and  _34
REMARK   12  A    between atoms: _33  and  _36
REMARK   13  A    between atoms: _36  and  _37
REMARK   14  A    between atoms: _43  and  _45
REMARK   15  A    between atoms: _45  and  _46
REMARK   16  A    between atoms: _45  and  _48
REMARK   17  A    between atoms: _48  and  _49
REMARK   18  A    between atoms: _52  and  _53
REMARK   19  A    between atoms: _58  and  _60
REMARK   20  A    between atoms: _60  and  _61
REMARK   21  A    between atoms: _60  and  _63
REMARK   22  A    between atoms: _63  and  _64
REMARK   23  A    between atoms: _69  and  _71
REMARK   24  A    between atoms: _71  and  _72
REMARK   25  A    between atoms: _75  and  _77
REMARK   26  A    between atoms: _77  and  _78
REMARK   27  A    between atoms: _77  and  _80
REMARK   28  A    between atoms: _80  and  _81
REMARK   29  A    between atoms: _86  and  _88
REMARK   30  A    between atoms: _88  and  _89
REMARK   31  A    between atoms: _88  and  _91
REMARK   32  A    between atoms: _91  and  _92
REMARK   33  A    between atoms: _95  and  _97
REMARK   34  A    between atoms: _97  and  _98
REMARK   35  A    between atoms: _97  and  _100
REMARK   36  A    between atoms: _100  and  _101
REMARK   37  A    between atoms: _101  and  _102
REMARK   38  A    between atoms: _107  and  _109
REMARK   39  A    between atoms: _109  and  _110
REMARK   40  A    between atoms: _109  and  _112
REMARK   41  A    between atoms: _112  and  _113
REMARK   42  A    between atoms: _119  and  _121
REMARK   43  A    between atoms: _132  and  _135
REMARK   44  A    between atoms: _135  and  _136
REMARK   45  A    between atoms: _144  and  _145
REMARK   46  A    between atoms: _153  and  _155
REMARK   47  A    between atoms: _155  and  _156
REMARK   48  A    between atoms: _155  and  _158
REMARK   49  A    between atoms: _158  and  _159
REMARK   50  A    between atoms: _159  and  _160
REMARK   51  A    between atoms: _163  and  _165
REMARK   52  A    between atoms: _165  and  _166
REMARK   53  A    between atoms: _165  and  _168
REMARK   54  A    between atoms: _168  and  _169
REMARK   55  A    between atoms: _174  and  _176
REMARK   56  A    between atoms: _176  and  _177
REMARK   57  A    between atoms: _176  and  _179
REMARK   58  A    between atoms: _179  and  _180
REMARK   59  A    between atoms: _180  and  _181
REMARK   60  A    between atoms: _184  and  _186
REMARK   61  A    between atoms: _186  and  _187
REMARK   62  A    between atoms: _186  and  _189
REMARK   63  A    between atoms: _189  and  _190
REMARK   64  A    between atoms: _193  and  _195
REMARK   65  A    between atoms: _195  and  _196
REMARK   66  A    between atoms: _195  and  _198
REMARK   67  A    between atoms: _198  and  _199
REMARK   68  A    between atoms: _200  and  ZN_447
REMARK   69  A    between atoms: _204  and  _206
REMARK   70  A    between atoms: _206  and  _207
REMARK   71  A    between atoms: _206  and  _209
REMARK   72  A    between atoms: _209  and  _210
REMARK   73  A    between atoms: _213  and  _215
REMARK   74  A    between atoms: _215  and  _216
REMARK   75  A    between atoms: _215  and  _218
REMARK   76  A    between atoms: _221  and  _223
REMARK   77  A    between atoms: _223  and  _224
REMARK   78  A    between atoms: _223  and  _226
REMARK   79  A    between atoms: _226  and  _227
REMARK   80  A    between atoms: _232  and  _234
REMARK   81  A    between atoms: _234  and  _235
REMARK   82  A    between atoms: _234  and  _237
REMARK   83  A    between atoms: _240  and  _242
REMARK   84  A    between atoms: _242  and  _243
REMARK   85  A    between atoms: _245  and  _247
REMARK   86  A    between atoms: _247  and  _248
REMARK   87  A    between atoms: _247  and  _250
REMARK   88  A    between atoms: _250  and  _251
REMARK   89  A    between atoms: _251  and  _252
REMARK   90  A    between atoms: _252  and  _253
REMARK   91  A    between atoms: _253  and  _254
REMARK   92  A    between atoms: _258  and  _260
REMARK   93  A    between atoms: _260  and  _261
REMARK   94  A    between atoms: _264  and  _266
REMARK   95  A    between atoms: _266  and  _267
REMARK   96  A    between atoms: _266  and  _269
REMARK   97  A    between atoms: _272  and  _274
REMARK   98  A    between atoms: _274  and  _275
REMARK   99  A    between atoms: _274  and  _277
REMARK  100  A    between atoms: _277  and  _278
REMARK  101  A    between atoms: _278  and  _279
REMARK  102  A    between atoms: _284  and  _286
REMARK  103  A    between atoms: _286  and  _287
REMARK  104  A    between atoms: _286  and  _289
REMARK  105  A    between atoms: _289  and  _290
REMARK  106  A    between atoms: _293  and  _295
REMARK  107  A    between atoms: _295  and  _296
REMARK  108  A    between atoms: _299  and  _301
REMARK  109  A    between atoms: _301  and  _302
REMARK  110  A    between atoms: _301  and  _304
REMARK  111  A    between atoms: _307  and  _309
REMARK  112  A    between atoms: _309  and  _310
REMARK  113  A    between atoms: _309  and  _312
REMARK  114  A    between atoms: _312  and  _313
REMARK  115  A    between atoms: _316  and  _318
REMARK  116  A    between atoms: _318  and  _319
REMARK  117  A    between atoms: _321  and  _323
REMARK  118  A    between atoms: _323  and  _324
REMARK  119  A    between atoms: _323  and  _326
REMARK  120  A    between atoms: _326  and  _327
REMARK  121  A    between atoms: _329  and  _331
REMARK  122  A    between atoms: _331  and  _332
REMARK  123  A    between atoms: _331  and  _334
REMARK  124  A    between atoms: _334  and  _335
REMARK  125  A    between atoms: _338  and  _340
REMARK  126  A    between atoms: _340  and  _341
REMARK  127  A    between atoms: _340  and  _343
REMARK  128  A    between atoms: _343  and  _344
REMARK  129  A    between atoms: _347  and  _349
REMARK  130  A    between atoms: _349  and  _350
REMARK  131  A    between atoms: _349  and  _352
REMARK  132  A    between atoms: _352  and  _353
REMARK  133  A    between atoms: _357  and  _358
REMARK  134  A    between atoms: _364  and  _365
REMARK  135  A    between atoms: _370  and  _372
REMARK  136  A    between atoms: _372  and  _373
REMARK  137  A    between atoms: _372  and  _375
REMARK  138  A    between atoms: _375  and  _376
REMARK  139  A    between atoms: _379  and  _381
REMARK  140  A    between atoms: _381  and  _382
REMARK  141  A    between atoms: _381  and  _384
REMARK  142  A    between atoms: _384  and  _385
REMARK  143  A    between atoms: _388  and  _390
REMARK  144  A    between atoms: _390  and  _391
REMARK  145  A    between atoms: _390  and  _393
REMARK  146  A    between atoms: _395  and  _397
REMARK  147  A    between atoms: _397  and  _398
REMARK  148  A    between atoms: _397  and  _400
REMARK  149  A    between atoms: _403  and  _405
REMARK  150  A    between atoms: _405  and  _406
REMARK  151  A    between atoms: _405  and  _408
REMARK  152  A    between atoms: _408  and  _409
REMARK  153  A    between atoms: _419  and  _421
REMARK  154  A    between atoms: _421  and  _422
REMARK  155  A    between atoms: _421  and  _424
REMARK  156  A    between atoms: _424  and  _425
REMARK  157  A    between atoms: _430  and  _432
REMARK  158  A    between atoms: _432  and  _433
REMARK  159  A    between atoms: _432  and  _435
REMARK  160  A    between atoms: _435  and  _436
REMARK  161  A    between atoms: _436  and  _437
REMARK  162  A    between atoms: _437  and  _438
REMARK                            x       y       z     vdW  Elec       q    Type
REMARK                         _______ _______ _______ _____ _____    ______ ____
ROOT
ATOM      1  CB  PHE A   1       7.424   3.437  19.192  0.00  0.00    +0.051 C 
ENDROOT
BRANCH   1   2
ATOM      2  CG  PHE A   1       7.299   3.813  17.739  0.00  0.00    -0.020 A 
ATOM      3  CD2 PHE A   1       6.955   5.114  17.370  0.00  0.00    -0.004 A 
ATOM      4  CE2 PHE A   1       6.961   5.502  16.019  0.00  0.00    -0.000 A 
ATOM      5  CZ  PHE A   1       7.312   4.573  15.033  0.00  0.00    -0.000 A 
ATOM      6  CE1 PHE A   1       7.647   3.272  15.391  0.00  0.00    -0.000 A 
ATOM      7  CD1 PHE A   1       7.636   2.899  16.740  0.00  0.00    -0.004 A 
ENDBRANCH   1   2
BRANCH   1   8
ATOM      8  CA  PHE A   1       8.785   3.818  19.807  0.00  0.00    +0.137 C 
BRANCH   8   9
ATOM      9  N   PHE A   1       9.880   3.241  19.029  0.00  0.00    -0.239 NA
ATOM     10  H   PHE A   1      10.006   2.209  19.032  0.00  0.00    +0.142 HD
ENDBRANCH   8   9
BRANCH   8  11
ATOM     11  C   PHE A   1       8.891   3.303  21.228  0.00  0.00    +0.224 C 
ATOM     12  O   PHE A   1       8.295   2.289  21.576  0.00  0.00    -0.287 OA
ENDBRANCH   8  11
ENDBRANCH   1   8
TORSDOF 4
REMARK  Name = ../refined-set-2016/1g48/1g48_pocket.pdb
REMARK  162 active torsions:
REMARK  status: ('A' for Active; 'I' for Inactive)
REMARK    1  A    between atoms: _1  and  _3
REMARK    2  A    between atoms: _3  and  _4
REMARK    3  A    between atoms: _3  and  _6
REMARK    4  A    between atoms: _6  and  _7
REMARK    5  A    between atoms: _17  and  _19
REMARK    6  A    between atoms: _19  and  _20
REMARK    7  A    between atoms: _19  and  _22
REMARK    8  A    between atoms: _22  and  _23
REMARK    9  A    between atoms: _28  and  _29
REMARK   10  A    between atoms: _31  and  _33
REMARK   11  A    between atoms: _33  and  _34
REMARK   12  A    between atoms: _33  and  _36
REMARK   13  A    between atoms: _36  and  _37
REMARK   14  A    between atoms: _43  and  _45
REMARK   15  A    between atoms: _45  and  _46
REMARK   16  A    between atoms: _45  and  _48
REMARK   17  A    between atoms: _48  and  _49
REMARK   18  A    between atoms: _52  and  _53
REMARK   19  A    between atoms: _58  and  _60
REMARK   20  A    between atoms: _60  and  _61
REMARK   21  A    between atoms: _60  and  _63
REMARK   22  A    between atoms: _63  and  _64
REMARK   23  A    between atoms: _69  and  _71
REMARK   24  A    between atoms: _71  and  _72
REMARK   25  A    between atoms: _75  and  _77
REMARK   26  A    between atoms: _77  and  _78
REMARK   27  A    between atoms: _77  and  _80
REMARK   28  A    between atoms: _80  and  _81
REMARK   29  A    between atoms: _86  and  _88
REMARK   30  A    between atoms: _88  and  _89
REMARK   31  A    between atoms: _88  and  _91
REMARK   32  A    between atoms: _91  and  _92
REMARK   33  A    between atoms: _95  and  _97
REMARK   34  A    between atoms: _97  and  _98
REMARK   35  A    between atoms: _97  and  _100
REMARK   36  A    between atoms: _100  and  _101
REMARK   37  A    between atoms: _101  and  _102
REMARK   38  A    between atoms: _107  and  _109
REMARK   39  A    between atoms: _109  and  _110
REMARK   40  A    between atoms: _109  and  _112
REMARK   41  A    between atoms: _112  and  _113
REMARK   42  A    between atoms: _119  and  _121
REMARK   43  A    between atoms: _132  and  _135
REMARK   44  A    between atoms: _135  and  _136
REMARK   45  A    between atoms: _144  and  _145
REMARK   46  A    between atoms: _153  and  _155
REMARK   47  A    between atoms: _155  and  _156
REMARK   48  A    between atoms: _155  and  _158
REMARK   49  A    between atoms: _158  and  _159
REMARK   50  A    between atoms: _159  and  _160
REMARK   51  A    between atoms: _163  and  _165
REMARK   52  A    between atoms: _165  and  _166
REMARK   53  A    between atoms: _165  and  _168
REMARK   54  A    between atoms: _168  and  _169
REMARK   55  A    between atoms: _174  and  _176
REMARK   56  A    between atoms: _176  and  _177
REMARK   57  A    between atoms: _176  and  _179
REMARK   58  A    between atoms: _179  and  _180
REMARK   59  A    between atoms: _180  and  _181
REMARK   60  A    between atoms: _184  and  _186
REMARK   61  A    between atoms: _186  and  _187
REMARK   62  A    between atoms: _186  and  _189
REMARK   63  A    between atoms: _189  and  _190
REMARK   64  A    between atoms: _193  and  _195
REMARK   65  A    between atoms: _195  and  _196
REMARK   66  A    between atoms: _195  and  _198
REMARK   67  A    between atoms: _198  and  _199
REMARK   68  A    between atoms: _200  and  ZN_447
REMARK   69  A    between atoms: _204  and  _206
REMARK   70  A    between atoms: _206  and  _207
REMARK   71  A    between atoms: _206  and  _209
REMARK   72  A    between atoms: _209  and  _210
REMARK   73  A    between atoms: _213  and  _215
REMARK   74  A    between atoms: _215  and  _216
REMARK   75  A    between atoms: _215  and  _218
REMARK   76  A    between atoms: _221  and  _223
REMARK   77  A    between atoms: _223  and  _224
REMARK   78  A    between atoms: _223  and  _226
REMARK   79  A    between atoms: _226  and  _227
REMARK   80  A    between atoms: _232  and  _234
REMARK   81  A    between atoms: _234  and  _235
REMARK   82  A    between atoms: _234  and  _237
REMARK   83  A    between atoms: _240  and  _242
REMARK   84  A    between atoms: _242  and  _243
REMARK   85  A    between atoms: _245  and  _247
REMARK   86  A    between atoms: _247  and  _248
REMARK   87  A    between atoms: _247  and  _250
REMARK   88  A    between atoms: _250  and  _251
REMARK   89  A    between atoms: _251  and  _252
REMARK   90  A    between atoms: _252  and  _253
REMARK   91  A    between atoms: _253  and  _254
REMARK   92  A    between atoms: _258  and  _260
REMARK   93  A    between atoms: _260  and  _261
REMARK   94  A    between atoms: _264  and  _266
REMARK   95  A    between atoms: _266  and  _267
REMARK   96  A    between atoms: _266  and  _269
REMARK   97  A    between atoms: _272  and  _274
REMARK   98  A    between atoms: _274  and  _275
REMARK   99  A    between atoms: _274  and  _277
REMARK  100  A    between atoms: _277  and  _278
REMARK  101  A    between atoms: _278  and  _279
REMARK  102  A    between atoms: _284  and  _286
REMARK  103  A    between atoms: _286  and  _287
REMARK  104  A    between atoms: _286  and  _289
REMARK  105  A    between atoms: _289  and  _290
REMARK  106  A    between atoms: _293  and  _295
REMARK  107  A    between atoms: _295  and  _296
REMARK  108  A    between atoms: _299  and  _301
REMARK  109  A    between atoms: _301  and  _302
REMARK  110  A    between atoms: _301  and  _304
REMARK  111  A    between atoms: _307  and  _309
REMARK  112  A    between atoms: _309  and  _310
REMARK  113  A    between atoms: _309  and  _312
REMARK  114  A    between atoms: _312  and  _313
REMARK  115  A    between atoms: _316  and  _318
REMARK  116  A    between atoms: _318  and  _319
REMARK  117  A    between atoms: _321  and  _323
REMARK  118  A    between atoms: _323  and  _324
REMARK  119  A    between atoms: _323  and  _326
REMARK  120  A    between atoms: _326  and  _327
REMARK  121  A    between atoms: _329  and  _331
REMARK  122  A    between atoms: _331  and  _332
REMARK  123  A    between atoms: _331  and  _334
REMARK  124  A    between atoms: _334  and  _335
REMARK  125  A    between atoms: _338  and  _340
REMARK  126  A    between atoms: _340  and  _341
REMARK  127  A    between atoms: _340  and  _343
REMARK  128  A    between atoms: _343  and  _344
REMARK  129  A    between atoms: _347  and  _349
REMARK  130  A    between atoms: _349  and  _350
REMARK  131  A    between atoms: _349  and  _352
REMARK  132  A    between atoms: _352  and  _353
REMARK  133  A    between atoms: _357  and  _358
REMARK  134  A    between atoms: _364  and  _365
REMARK  135  A    between atoms: _370  and  _372
REMARK  136  A    between atoms: _372  and  _373
REMARK  137  A    between atoms: _372  and  _375
REMARK  138  A    between atoms: _375  and  _376
REMARK  139  A    between atoms: _379  and  _381
REMARK  140  A    between atoms: _381  and  _382
REMARK  141  A    between atoms: _381  and  _384
REMARK  142  A    between atoms: _384  and  _385
REMARK  143  A    between atoms: _388  and  _390
REMARK  144  A    between atoms: _390  and  _391
REMARK  145  A    between atoms: _390  and  _393
REMARK  146  A    between atoms: _395  and  _397
REMARK  147  A    between atoms: _397  and  _398
REMARK  148  A    between atoms: _397  and  _400
REMARK  149  A    between atoms: _403  and  _405
REMARK  150  A    between atoms: _405  and  _406
REMARK  151  A    between atoms: _405  and  _408
REMARK  152  A    between atoms: _408  and  _409
REMARK  153  A    between atoms: _419  and  _421
REMARK  154  A    between atoms: _421  and  _422
REMARK  155  A    between atoms: _421  and  _424
REMARK  156  A    between atoms: _424  and  _425
REMARK  157  A    between atoms: _430  and  _432
REMARK  158  A    between atoms: _432  and  _433
REMARK  159  A    between atoms: _432  and  _435
REMARK  160  A    between atoms: _435  and  _436
REMARK  161  A    between atoms: _436  and  _437
REMARK  162  A    between atoms: _437  and  _438
REMARK                            x       y       z     vdW  Elec       q    Type
REMARK                         _______ _______ _______ _____ _____    ______ ____
ROOT
ATOM      1  C   SER A   1      -2.300  -3.075  23.355  0.00  0.00    +0.244 C 
ATOM      2  N   PRO A   2      -2.920  -4.236  23.095  0.00  0.00    -0.273 N 
ATOM      3  CA  PRO A   2      -4.101  -4.767  23.778  0.00  0.00    +0.140 C 
ATOM      4  CB  PRO A   2      -4.630  -5.770  22.768  0.00  0.00    +0.030 C 
ATOM      5  CG  PRO A   2      -3.338  -6.336  22.219  0.00  0.00    +0.024 C 
ATOM      6  CD  PRO A   2      -2.539  -5.103  21.964  0.00  0.00    +0.094 C 
ATOM      7  O   SER A   1      -1.344  -2.678  22.685  0.00  0.00    -0.273 OA
ENDROOT
BRANCH   3   8
ATOM      8  C   PRO A   2      -3.711  -5.459  25.075  0.00  0.00    +0.227 C 
ATOM      9  O   PRO A   2      -2.528  -5.535  25.403  0.00  0.00    -0.286 OA
ENDBRANCH   3   8
BRANCH   1  10
ATOM     10  CA  SER A   1      -2.865  -2.212  24.466  0.00  0.00    +0.175 C 
BRANCH  10  11
ATOM     11  N   SER A   1      -1.808  -1.307  24.875  0.00  0.00    -0.236 NA
ATOM     12  H   SER A   1      -1.322  -0.736  24.154  0.00  0.00    +0.142 HD
ENDBRANCH  10  11
BRANCH  10  13
ATOM     13  CB  SER A   1      -4.056  -1.413  23.945  0.00  0.00    +0.163 C 
BRANCH  13  14
ATOM     14  OG  SER A   1      -4.642  -0.651  24.984  0.00  0.00    -0.380 OA
ATOM     15  H   SER A   1      -4.953  -1.258  25.702  0.00  0.00    +0.211 HD
ENDBRANCH  13  14
ENDBRANCH  10  13
ENDBRANCH   1  10
TORSDOF 5
REMARK  Name = ../refined-set-2016/1g48/1g48_pocket.pdb
REMARK  162 active torsions:
REMARK  status: ('A' for Active; 'I' for Inactive)
REMARK    1  A    between atoms: _1  and  _3
REMARK    2  A    between atoms: _3  and  _4
REMARK    3  A    between atoms: _3  and  _6
REMARK    4  A    between atoms: _6  and  _7
REMARK    5  A    between atoms: _17  and  _19
REMARK    6  A    between atoms: _19  and  _20
REMARK    7  A    between atoms: _19  and  _22
REMARK    8  A    between atoms: _22  and  _23
REMARK    9  A    between atoms: _28  and  _29
REMARK   10  A    between atoms: _31  and  _33
REMARK   11  A    between atoms: _33  and  _34
REMARK   12  A    between atoms: _33  and  _36
REMARK   13  A    between atoms: _36  and  _37
REMARK   14  A    between atoms: _43  and  _45
REMARK   15  A    between atoms: _45  and  _46
REMARK   16  A    between atoms: _45  and  _48
REMARK   17  A    between atoms: _48  and  _49
REMARK   18  A    between atoms: _52  and  _53
REMARK   19  A    between atoms: _58  and  _60
REMARK   20  A    between atoms: _60  and  _61
REMARK   21  A    between atoms: _60  and  _63
REMARK   22  A    between atoms: _63  and  _64
REMARK   23  A    between atoms: _69  and  _71
REMARK   24  A    between atoms: _71  and  _72
REMARK   25  A    between atoms: _75  and  _77
REMARK   26  A    between atoms: _77  and  _78
REMARK   27  A    between atoms: _77  and  _80
REMARK   28  A    between atoms: _80  and  _81
REMARK   29  A    between atoms: _86  and  _88
REMARK   30  A    between atoms: _88  and  _89
REMARK   31  A    between atoms: _88  and  _91
REMARK   32  A    between atoms: _91  and  _92
REMARK   33  A    between atoms: _95  and  _97
REMARK   34  A    between atoms: _97  and  _98
REMARK   35  A    between atoms: _97  and  _100
REMARK   36  A    between atoms: _100  and  _101
REMARK   37  A    between atoms: _101  and  _102
REMARK   38  A    between atoms: _107  and  _109
REMARK   39  A    between atoms: _109  and  _110
REMARK   40  A    between atoms: _109  and  _112
REMARK   41  A    between atoms: _112  and  _113
REMARK   42  A    between atoms: _119  and  _121
REMARK   43  A    between atoms: _132  and  _135
REMARK   44  A    between atoms: _135  and  _136
REMARK   45  A    between atoms: _144  and  _145
REMARK   46  A    between atoms: _153  and  _155
REMARK   47  A    between atoms: _155  and  _156
REMARK   48  A    between atoms: _155  and  _158
REMARK   49  A    between atoms: _158  and  _159
REMARK   50  A    between atoms: _159  and  _160
REMARK   51  A    between atoms: _163  and  _165
REMARK   52  A    between atoms: _165  and  _166
REMARK   53  A    between atoms: _165  and  _168
REMARK   54  A    between atoms: _168  and  _169
REMARK   55  A    between atoms: _174  and  _176
REMARK   56  A    between atoms: _176  and  _177
REMARK   57  A    between atoms: _176  and  _179
REMARK   58  A    between atoms: _179  and  _180
REMARK   59  A    between atoms: _180  and  _181
REMARK   60  A    between atoms: _184  and  _186
REMARK   61  A    between atoms: _186  and  _187
REMARK   62  A    between atoms: _186  and  _189
REMARK   63  A    between atoms: _189  and  _190
REMARK   64  A    between atoms: _193  and  _195
REMARK   65  A    between atoms: _195  and  _196
REMARK   66  A    between atoms: _195  and  _198
REMARK   67  A    between atoms: _198  and  _199
REMARK   68  A    between atoms: _200  and  ZN_447
REMARK   69  A    between atoms: _204  and  _206
REMARK   70  A    between atoms: _206  and  _207
REMARK   71  A    between atoms: _206  and  _209
REMARK   72  A    between atoms: _209  and  _210
REMARK   73  A    between atoms: _213  and  _215
REMARK   74  A    between atoms: _215  and  _216
REMARK   75  A    between atoms: _215  and  _218
REMARK   76  A    between atoms: _221  and  _223
REMARK   77  A    between atoms: _223  and  _224
REMARK   78  A    between atoms: _223  and  _226
REMARK   79  A    between atoms: _226  and  _227
REMARK   80  A    between atoms: _232  and  _234
REMARK   81  A    between atoms: _234  and  _235
REMARK   82  A    between atoms: _234  and  _237
REMARK   83  A    between atoms: _240  and  _242
REMARK   84  A    between atoms: _242  and  _243
REMARK   85  A    between atoms: _245  and  _247
REMARK   86  A    between atoms: _247  and  _248
REMARK   87  A    between atoms: _247  and  _250
REMARK   88  A    between atoms: _250  and  _251
REMARK   89  A    between atoms: _251  and  _252
REMARK   90  A    between atoms: _252  and  _253
REMARK   91  A    between atoms: _253  and  _254
REMARK   92  A    between atoms: _258  and  _260
REMARK   93  A    between atoms: _260  and  _261
REMARK   94  A    between atoms: _264  and  _266
REMARK   95  A    between atoms: _266  and  _267
REMARK   96  A    between atoms: _266  and  _269
REMARK   97  A    between atoms: _272  and  _274
REMARK   98  A    between atoms: _274  and  _275
REMARK   99  A    between atoms: _274  and  _277
REMARK  100  A    between atoms: _277  and  _278
REMARK  101  A    between atoms: _278  and  _279
REMARK  102  A    between atoms: _284  and  _286
REMARK  103  A    between atoms: _286  and  _287
REMARK  104  A    between atoms: _286  and  _289
REMARK  105  A    between atoms: _289  and  _290
REMARK  106  A    between atoms: _293  and  _295
REMARK  107  A    between atoms: _295  and  _296
REMARK  108  A    between atoms: _299  and  _301
REMARK  109  A    between atoms: _301  and  _302
REMARK  110  A    between atoms: _301  and  _304
REMARK  111  A    between atoms: _307  and  _309
REMARK  112  A    between atoms: _309  and  _310
REMARK  113  A    between atoms: _309  and  _312
REMARK  114  A    between atoms: _312  and  _313
REMARK  115  A    between atoms: _316  and  _318
REMARK  116  A    between atoms: _318  and  _319
REMARK  117  A    between atoms: _321  and  _323
REMARK  118  A    between atoms: _323  and  _324
REMARK  119  A    between atoms: _323  and  _326
REMARK  120  A    between atoms: _326  and  _327
REMARK  121  A    between atoms: _329  and  _331
REMARK  122  A    between atoms: _331  and  _332
REMARK  123  A    between atoms: _331  and  _334
REMARK  124  A    between atoms: _334  and  _335
REMARK  125  A    between atoms: _338  and  _340
REMARK  126  A    between atoms: _340  and  _341
REMARK  127  A    between atoms: _340  and  _343
REMARK  128  A    between atoms: _343  and  _344
REMARK  129  A    between atoms: _347  and  _349
REMARK  130  A    between atoms: _349  and  _350
REMARK  131  A    between atoms: _349  and  _352
REMARK  132  A    between atoms: _352  and  _353
REMARK  133  A    between atoms: _357  and  _358
REMARK  134  A    between atoms: _364  and  _365
REMARK  135  A    between atoms: _370  and  _372
REMARK  136  A    between atoms: _372  and  _373
REMARK  137  A    between atoms: _372  and  _375
REMARK  138  A    between atoms: _375  and  _376
REMARK  139  A    between atoms: _379  and  _381
REMARK  140  A    between atoms: _381  and  _382
REMARK  141  A    between atoms: _381  and  _384
REMARK  142  A    between atoms: _384  and  _385
REMARK  143  A    between atoms: _388  and  _390
REMARK  144  A    between atoms: _390  and  _391
REMARK  145  A    between atoms: _390  and  _393
REMARK  146  A    between atoms: _395  and  _397
REMARK  147  A    between atoms: _397  and  _398
REMARK  148  A    between atoms: _397  and  _400
REMARK  149  A    between atoms: _403  and  _405
REMARK  150  A    between atoms: _405  and  _406
REMARK  151  A    between atoms: _405  and  _408
REMARK  152  A    between atoms: _408  and  _409
REMARK  153  A    between atoms: _419  and  _421
REMARK  154  A    between atoms: _421  and  _422
REMARK  155  A    between atoms: _421  and  _424
REMARK  156  A    between atoms: _424  and  _425
REMARK  157  A    between atoms: _430  and  _432
REMARK  158  A    between atoms: _432  and  _433
REMARK  159  A    between atoms: _432  and  _435
REMARK  160  A    between atoms: _435  and  _436
REMARK  161  A    between atoms: _436  and  _437
REMARK  162  A    between atoms: _437  and  _438
REMARK                            x       y       z     vdW  Elec       q    Type
REMARK                         _______ _______ _______ _____ _____    ______ ____
ROOT
ATOM      1  CB  ASN A   1      -2.644   2.283   5.104  0.00  0.00    +0.110 C 
ENDROOT
BRANCH   1   2
ATOM      2  CG  ASN A   1      -3.106   1.568   6.384  0.00  0.00    +0.221 C 
ATOM      3  ND2 ASN A   1      -3.696   2.327   7.286  0.00  0.00    -0.329 N 
ATOM      4 HD21 ASN A   1      -4.036   1.909   8.175  0.00  0.00    +0.145 HD
ATOM      5 HD22 ASN A   1      -3.821   3.344   7.108  0.00  0.00    +0.145 HD
ATOM      6  OD1 ASN A   1      -2.939   0.369   6.554  0.00  0.00    -0.275 OA
ENDBRANCH   1   2
BRANCH   1   7
ATOM      7  CA  ASN A   1      -2.280   1.319   3.960  0.00  0.00    +0.142 C 
BRANCH   7   8
ATOM      8  N   ASN A   1      -3.436   0.502   3.582  0.00  0.00    -0.239 NA
ATOM      9  H   ASN A   1      -3.999   0.027   4.316  0.00  0.00    +0.142 HD
ENDBRANCH   7   8
BRANCH   7  10
ATOM     10  C   ASN A   1      -1.073   0.480   4.362  0.00  0.00    +0.225 C 
ATOM     11  O   ASN A   1      -0.121   1.006   4.941  0.00  0.00    -0.287 OA
ENDBRANCH   7  10
ENDBRANCH   1   7
TORSDOF 4
REMARK  Name = ../refined-set-2016/1g48/1g48_pocket.pdb
REMARK  162 active torsions:
REMARK  status: ('A' for Active; 'I' for Inactive)
REMARK    1  A    between atoms: _1  and  _3
REMARK    2  A    between atoms: _3  and  _4
REMARK    3  A    between atoms: _3  and  _6
REMARK    4  A    between atoms: _6  and  _7
REMARK    5  A    between atoms: _17  and  _19
REMARK    6  A    between atoms: _19  and  _20
REMARK    7  A    between atoms: _19  and  _22
REMARK    8  A    between atoms: _22  and  _23
REMARK    9  A    between atoms: _28  and  _29
REMARK   10  A    between atoms: _31  and  _33
REMARK   11  A    between atoms: _33  and  _34
REMARK   12  A    between atoms: _33  and  _36
REMARK   13  A    between atoms: _36  and  _37
REMARK   14  A    between atoms: _43  and  _45
REMARK   15  A    between atoms: _45  and  _46
REMARK   16  A    between atoms: _45  and  _48
REMARK   17  A    between atoms: _48  and  _49
REMARK   18  A    between atoms: _52  and  _53
REMARK   19  A    between atoms: _58  and  _60
REMARK   20  A    between atoms: _60  and  _61
REMARK   21  A    between atoms: _60  and  _63
REMARK   22  A    between atoms: _63  and  _64
REMARK   23  A    between atoms: _69  and  _71
REMARK   24  A    between atoms: _71  and  _72
REMARK   25  A    between atoms: _75  and  _77
REMARK   26  A    between atoms: _77  and  _78
REMARK   27  A    between atoms: _77  and  _80
REMARK   28  A    between atoms: _80  and  _81
REMARK   29  A    between atoms: _86  and  _88
REMARK   30  A    between atoms: _88  and  _89
REMARK   31  A    between atoms: _88  and  _91
REMARK   32  A    between atoms: _91  and  _92
REMARK   33  A    between atoms: _95  and  _97
REMARK   34  A    between atoms: _97  and  _98
REMARK   35  A    between atoms: _97  and  _100
REMARK   36  A    between atoms: _100  and  _101
REMARK   37  A    between atoms: _101  and  _102
REMARK   38  A    between atoms: _107  and  _109
REMARK   39  A    between atoms: _109  and  _110
REMARK   40  A    between atoms: _109  and  _112
REMARK   41  A    between atoms: _112  and  _113
REMARK   42  A    between atoms: _119  and  _121
REMARK   43  A    between atoms: _132  and  _135
REMARK   44  A    between atoms: _135  and  _136
REMARK   45  A    between atoms: _144  and  _145
REMARK   46  A    between atoms: _153  and  _155
REMARK   47  A    between atoms: _155  and  _156
REMARK   48  A    between atoms: _155  and  _158
REMARK   49  A    between atoms: _158  and  _159
REMARK   50  A    between atoms: _159  and  _160
REMARK   51  A    between atoms: _163  and  _165
REMARK   52  A    between atoms: _165  and  _166
REMARK   53  A    between atoms: _165  and  _168
REMARK   54  A    between atoms: _168  and  _169
REMARK   55  A    between atoms: _174  and  _176
REMARK   56  A    between atoms: _176  and  _177
REMARK   57  A    between atoms: _176  and  _179
REMARK   58  A    between atoms: _179  and  _180
REMARK   59  A    between atoms: _180  and  _181
REMARK   60  A    between atoms: _184  and  _186
REMARK   61  A    between atoms: _186  and  _187
REMARK   62  A    between atoms: _186  and  _189
REMARK   63  A    between atoms: _189  and  _190
REMARK   64  A    between atoms: _193  and  _195
REMARK   65  A    between atoms: _195  and  _196
REMARK   66  A    between atoms: _195  and  _198
REMARK   67  A    between atoms: _198  and  _199
REMARK   68  A    between atoms: _200  and  ZN_447
REMARK   69  A    between atoms: _204  and  _206
REMARK   70  A    between atoms: _206  and  _207
REMARK   71  A    between atoms: _206  and  _209
REMARK   72  A    between atoms: _209  and  _210
REMARK   73  A    between atoms: _213  and  _215
REMARK   74  A    between atoms: _215  and  _216
REMARK   75  A    between atoms: _215  and  _218
REMARK   76  A    between atoms: _221  and  _223
REMARK   77  A    between atoms: _223  and  _224
REMARK   78  A    between atoms: _223  and  _226
REMARK   79  A    between atoms: _226  and  _227
REMARK   80  A    between atoms: _232  and  _234
REMARK   81  A    between atoms: _234  and  _235
REMARK   82  A    between atoms: _234  and  _237
REMARK   83  A    between atoms: _240  and  _242
REMARK   84  A    between atoms: _242  and  _243
REMARK   85  A    between atoms: _245  and  _247
REMARK   86  A    between atoms: _247  and  _248
REMARK   87  A    between atoms: _247  and  _250
REMARK   88  A    between atoms: _250  and  _251
REMARK   89  A    between atoms: _251  and  _252
REMARK   90  A    between atoms: _252  and  _253
REMARK   91  A    between atoms: _253  and  _254
REMARK   92  A    between atoms: _258  and  _260
REMARK   93  A    between atoms: _260  and  _261
REMARK   94  A    between atoms: _264  and  _266
REMARK   95  A    between atoms: _266  and  _267
REMARK   96  A    between atoms: _266  and  _269
REMARK   97  A    between atoms: _272  and  _274
REMARK   98  A    between atoms: _274  and  _275
REMARK   99  A    between atoms: _274  and  _277
REMARK  100  A    between atoms: _277  and  _278
REMARK  101  A    between atoms: _278  and  _279
REMARK  102  A    between atoms: _284  and  _286
REMARK  103  A    between atoms: _286  and  _287
REMARK  104  A    between atoms: _286  and  _289
REMARK  105  A    between atoms: _289  and  _290
REMARK  106  A    between atoms: _293  and  _295
REMARK  107  A    between atoms: _295  and  _296
REMARK  108  A    between atoms: _299  and  _301
REMARK  109  A    between atoms: _301  and  _302
REMARK  110  A    between atoms: _301  and  _304
REMARK  111  A    between atoms: _307  and  _309
REMARK  112  A    between atoms: _309  and  _310
REMARK  113  A    between atoms: _309  and  _312
REMARK  114  A    between atoms: _312  and  _313
REMARK  115  A    between atoms: _316  and  _318
REMARK  116  A    between atoms: _318  and  _319
REMARK  117  A    between atoms: _321  and  _323
REMARK  118  A    between atoms: _323  and  _324
REMARK  119  A    between atoms: _323  and  _326
REMARK  120  A    between atoms: _326  and  _327
REMARK  121  A    between atoms: _329  and  _331
REMARK  122  A    between atoms: _331  and  _332
REMARK  123  A    between atoms: _331  and  _334
REMARK  124  A    between atoms: _334  and  _335
REMARK  125  A    between atoms: _338  and  _340
REMARK  126  A    between atoms: _340  and  _341
REMARK  127  A    between atoms: _340  and  _343
REMARK  128  A    between atoms: _343  and  _344
REMARK  129  A    between atoms: _347  and  _349
REMARK  130  A    between atoms: _349  and  _350
REMARK  131  A    between atoms: _349  and  _352
REMARK  132  A    between atoms: _352  and  _353
REMARK  133  A    between atoms: _357  and  _358
REMARK  134  A    between atoms: _364  and  _365
REMARK  135  A    between atoms: _370  and  _372
REMARK  136  A    between atoms: _372  and  _373
REMARK  137  A    between atoms: _372  and  _375
REMARK  138  A    between atoms: _375  and  _376
REMARK  139  A    between atoms: _379  and  _381
REMARK  140  A    between atoms: _381  and  _382
REMARK  141  A    between atoms: _381  and  _384
REMARK  142  A    between atoms: _384  and  _385
REMARK  143  A    between atoms: _388  and  _390
REMARK  144  A    between atoms: _390  and  _391
REMARK  145  A    between atoms: _390  and  _393
REMARK  146  A    between atoms: _395  and  _397
REMARK  147  A    between atoms: _397  and  _398
REMARK  148  A    between atoms: _397  and  _400
REMARK  149  A    between atoms: _403  and  _405
REMARK  150  A    between atoms: _405  and  _406
REMARK  151  A    between atoms: _405  and  _408
REMARK  152  A    between atoms: _408  and  _409
REMARK  153  A    between atoms: _419  and  _421
REMARK  154  A    between atoms: _421  and  _422
REMARK  155  A    between atoms: _421  and  _424
REMARK  156  A    between atoms: _424  and  _425
REMARK  157  A    between atoms: _430  and  _432
REMARK  158  A    between atoms: _432  and  _433
REMARK  159  A    between atoms: _432  and  _435
REMARK  160  A    between atoms: _435  and  _436
REMARK  161  A    between atoms: _436  and  _437
REMARK  162  A    between atoms: _437  and  _438
REMARK                            x       y       z     vdW  Elec       q    Type
REMARK                         _______ _______ _______ _____ _____    ______ ____
ROOT
ATOM      1  CA  ALA A   1      -4.507  -3.182   7.282  0.00  0.00    +0.133 C 
ATOM      2  CB  ALA A   1      -5.107  -2.946   8.683  0.00  0.00    +0.027 C 
ENDROOT
BRANCH   1   3
ATOM      3  N   ALA A   1      -3.080  -2.825   7.299  0.00  0.00    -0.239 NA
ATOM      4  H   ALA A   1      -2.765  -1.980   6.781  0.00  0.00    +0.142 HD
ENDBRANCH   1   3
BRANCH   1   5
ATOM      5  C   ALA A   1      -5.298  -2.359   6.252  0.00  0.00    +0.224 C 
ATOM      6  O   ALA A   1      -4.708  -1.634   5.458  0.00  0.00    -0.287 OA
ENDBRANCH   1   5
TORSDOF 2
REMARK  Name = ../refined-set-2016/1g48/1g48_pocket.pdb
REMARK  162 active torsions:
REMARK  status: ('A' for Active; 'I' for Inactive)
REMARK    1  A    between atoms: _1  and  _3
REMARK    2  A    between atoms: _3  and  _4
REMARK    3  A    between atoms: _3  and  _6
REMARK    4  A    between atoms: _6  and  _7
REMARK    5  A    between atoms: _17  and  _19
REMARK    6  A    between atoms: _19  and  _20
REMARK    7  A    between atoms: _19  and  _22
REMARK    8  A    between atoms: _22  and  _23
REMARK    9  A    between atoms: _28  and  _29
REMARK   10  A    between atoms: _31  and  _33
REMARK   11  A    between atoms: _33  and  _34
REMARK   12  A    between atoms: _33  and  _36
REMARK   13  A    between atoms: _36  and  _37
REMARK   14  A    between atoms: _43  and  _45
REMARK   15  A    between atoms: _45  and  _46
REMARK   16  A    between atoms: _45  and  _48
REMARK   17  A    between atoms: _48  and  _49
REMARK   18  A    between atoms: _52  and  _53
REMARK   19  A    between atoms: _58  and  _60
REMARK   20  A    between atoms: _60  and  _61
REMARK   21  A    between atoms: _60  and  _63
REMARK   22  A    between atoms: _63  and  _64
REMARK   23  A    between atoms: _69  and  _71
REMARK   24  A    between atoms: _71  and  _72
REMARK   25  A    between atoms: _75  and  _77
REMARK   26  A    between atoms: _77  and  _78
REMARK   27  A    between atoms: _77  and  _80
REMARK   28  A    between atoms: _80  and  _81
REMARK   29  A    between atoms: _86  and  _88
REMARK   30  A    between atoms: _88  and  _89
REMARK   31  A    between atoms: _88  and  _91
REMARK   32  A    between atoms: _91  and  _92
REMARK   33  A    between atoms: _95  and  _97
REMARK   34  A    between atoms: _97  and  _98
REMARK   35  A    between atoms: _97  and  _100
REMARK   36  A    between atoms: _100  and  _101
REMARK   37  A    between atoms: _101  and  _102
REMARK   38  A    between atoms: _107  and  _109
REMARK   39  A    between atoms: _109  and  _110
REMARK   40  A    between atoms: _109  and  _112
REMARK   41  A    between atoms: _112  and  _113
REMARK   42  A    between atoms: _119  and  _121
REMARK   43  A    between atoms: _132  and  _135
REMARK   44  A    between atoms: _135  and  _136
REMARK   45  A    between atoms: _144  and  _145
REMARK   46  A    between atoms: _153  and  _155
REMARK   47  A    between atoms: _155  and  _156
REMARK   48  A    between atoms: _155  and  _158
REMARK   49  A    between atoms: _158  and  _159
REMARK   50  A    between atoms: _159  and  _160
REMARK   51  A    between atoms: _163  and  _165
REMARK   52  A    between atoms: _165  and  _166
REMARK   53  A    between atoms: _165  and  _168
REMARK   54  A    between atoms: _168  and  _169
REMARK   55  A    between atoms: _174  and  _176
REMARK   56  A    between atoms: _176  and  _177
REMARK   57  A    between atoms: _176  and  _179
REMARK   58  A    between atoms: _179  and  _180
REMARK   59  A    between atoms: _180  and  _181
REMARK   60  A    between atoms: _184  and  _186
REMARK   61  A    between atoms: _186  and  _187
REMARK   62  A    between atoms: _186  and  _189
REMARK   63  A    between atoms: _189  and  _190
REMARK   64  A    between atoms: _193  and  _195
REMARK   65  A    between atoms: _195  and  _196
REMARK   66  A    between atoms: _195  and  _198
REMARK   67  A    between atoms: _198  and  _199
REMARK   68  A    between atoms: _200  and  ZN_447
REMARK   69  A    between atoms: _204  and  _206
REMARK   70  A    between atoms: _206  and  _207
REMARK   71  A    between atoms: _206  and  _209
REMARK   72  A    between atoms: _209  and  _210
REMARK   73  A    between atoms: _213  and  _215
REMARK   74  A    between atoms: _215  and  _216
REMARK   75  A    between atoms: _215  and  _218
REMARK   76  A    between atoms: _221  and  _223
REMARK   77  A    between atoms: _223  and  _224
REMARK   78  A    between atoms: _223  and  _226
REMARK   79  A    between atoms: _226  and  _227
REMARK   80  A    between atoms: _232  and  _234
REMARK   81  A    between atoms: _234  and  _235
REMARK   82  A    between atoms: _234  and  _237
REMARK   83  A    between atoms: _240  and  _242
REMARK   84  A    between atoms: _242  and  _243
REMARK   85  A    between atoms: _245  and  _247
REMARK   86  A    between atoms: _247  and  _248
REMARK   87  A    between atoms: _247  and  _250
REMARK   88  A    between atoms: _250  and  _251
REMARK   89  A    between atoms: _251  and  _252
REMARK   90  A    between atoms: _252  and  _253
REMARK   91  A    between atoms: _253  and  _254
REMARK   92  A    between atoms: _258  and  _260
REMARK   93  A    between atoms: _260  and  _261
REMARK   94  A    between atoms: _264  and  _266
REMARK   95  A    between atoms: _266  and  _267
REMARK   96  A    between atoms: _266  and  _269
REMARK   97  A    between atoms: _272  and  _274
REMARK   98  A    between atoms: _274  and  _275
REMARK   99  A    between atoms: _274  and  _277
REMARK  100  A    between atoms: _277  and  _278
REMARK  101  A    between atoms: _278  and  _279
REMARK  102  A    between atoms: _284  and  _286
REMARK  103  A    between atoms: _286  and  _287
REMARK  104  A    between atoms: _286  and  _289
REMARK  105  A    between atoms: _289  and  _290
REMARK  106  A    between atoms: _293  and  _295
REMARK  107  A    between atoms: _295  and  _296
REMARK  108  A    between atoms: _299  and  _301
REMARK  109  A    between atoms: _301  and  _302
REMARK  110  A    between atoms: _301  and  _304
REMARK  111  A    between atoms: _307  and  _309
REMARK  112  A    between atoms: _309  and  _310
REMARK  113  A    between atoms: _309  and  _312
REMARK  114  A    between atoms: _312  and  _313
REMARK  115  A    between atoms: _316  and  _318
REMARK  116  A    between atoms: _318  and  _319
REMARK  117  A    between atoms: _321  and  _323
REMARK  118  A    between atoms: _323  and  _324
REMARK  119  A    between atoms: _323  and  _326
REMARK  120  A    between atoms: _326  and  _327
REMARK  121  A    between atoms: _329  and  _331
REMARK  122  A    between atoms: _331  and  _332
REMARK  123  A    between atoms: _331  and  _334
REMARK  124  A    between atoms: _334  and  _335
REMARK  125  A    between atoms: _338  and  _340
REMARK  126  A    between atoms: _340  and  _341
REMARK  127  A    between atoms: _340  and  _343
REMARK  128  A    between atoms: _343  and  _344
REMARK  129  A    between atoms: _347  and  _349
REMARK  130  A    between atoms: _349  and  _350
REMARK  131  A    between atoms: _349  and  _352
REMARK  132  A    between atoms: _352  and  _353
REMARK  133  A    between atoms: _357  and  _358
REMARK  134  A    between atoms: _364  and  _365
REMARK  135  A    between atoms: _370  and  _372
REMARK  136  A    between atoms: _372  and  _373
REMARK  137  A    between atoms: _372  and  _375
REMARK  138  A    between atoms: _375  and  _376
REMARK  139  A    between atoms: _379  and  _381
REMARK  140  A    between atoms: _381  and  _382
REMARK  141  A    between atoms: _381  and  _384
REMARK  142  A    between atoms: _384  and  _385
REMARK  143  A    between atoms: _388  and  _390
REMARK  144  A    between atoms: _390  and  _391
REMARK  145  A    between atoms: _390  and  _393
REMARK  146  A    between atoms: _395  and  _397
REMARK  147  A    between atoms: _397  and  _398
REMARK  148  A    between atoms: _397  and  _400
REMARK  149  A    between atoms: _403  and  _405
REMARK  150  A    between atoms: _405  and  _406
REMARK  151  A    between atoms: _405  and  _408
REMARK  152  A    between atoms: _408  and  _409
REMARK  153  A    between atoms: _419  and  _421
REMARK  154  A    between atoms: _421  and  _422
REMARK  155  A    between atoms: _421  and  _424
REMARK  156  A    between atoms: _424  and  _425
REMARK  157  A    between atoms: _430  and  _432
REMARK  158  A    between atoms: _432  and  _433
REMARK  159  A    between atoms: _432  and  _435
REMARK  160  A    between atoms: _435  and  _436
REMARK  161  A    between atoms: _436  and  _437
REMARK  162  A    between atoms: _437  and  _438
REMARK                            x       y       z     vdW  Elec       q    Type
REMARK                         _______ _______ _______ _____ _____    ______ ____
ROOT
ATOM      1  CB  ASN A   1      -8.596   2.609   7.084  0.00  0.00    +0.110 C 
ENDROOT
BRANCH   1   2
ATOM      2  CG  ASN A   1      -7.441   2.365   8.044  0.00  0.00    +0.221 C 
ATOM      3  ND2 ASN A   1      -7.296   1.149   8.541  0.00  0.00    -0.329 N 
ATOM      4 HD21 ASN A   1      -6.511   0.943   9.191  0.00  0.00    +0.145 HD
ATOM      5 HD22 ASN A   1      -7.967   0.398   8.282  0.00  0.00    +0.145 HD
ATOM      6  OD1 ASN A   1      -6.673   3.288   8.320  0.00  0.00    -0.275 OA
ENDBRANCH   1   2
BRANCH   1   7
ATOM      7  CA  ASN A   1      -9.356   1.333   6.691  0.00  0.00    +0.142 C 
BRANCH   7   8
ATOM      8  N   ASN A   1      -8.491   0.421   5.950  0.00  0.00    -0.239 NA
ATOM      9  H   ASN A   1      -7.900   0.799   5.182  0.00  0.00    +0.142 HD
ENDBRANCH   7   8
BRANCH   7  10
ATOM     10  C   ASN A   1     -10.528   1.796   5.843  0.00  0.00    +0.225 C 
ATOM     11  O   ASN A   1     -10.378   2.007   4.648  0.00  0.00    -0.287 OA
ENDBRANCH   7  10
ENDBRANCH   1   7
TORSDOF 4
REMARK  Name = ../refined-set-2016/1g48/1g48_pocket.pdb
REMARK  162 active torsions:
REMARK  status: ('A' for Active; 'I' for Inactive)
REMARK    1  A    between atoms: _1  and  _3
REMARK    2  A    between atoms: _3  and  _4
REMARK    3  A    between atoms: _3  and  _6
REMARK    4  A    between atoms: _6  and  _7
REMARK    5  A    between atoms: _17  and  _19
REMARK    6  A    between atoms: _19  and  _20
REMARK    7  A    between atoms: _19  and  _22
REMARK    8  A    between atoms: _22  and  _23
REMARK    9  A    between atoms: _28  and  _29
REMARK   10  A    between atoms: _31  and  _33
REMARK   11  A    between atoms: _33  and  _34
REMARK   12  A    between atoms: _33  and  _36
REMARK   13  A    between atoms: _36  and  _37
REMARK   14  A    between atoms: _43  and  _45
REMARK   15  A    between atoms: _45  and  _46
REMARK   16  A    between atoms: _45  and  _48
REMARK   17  A    between atoms: _48  and  _49
REMARK   18  A    between atoms: _52  and  _53
REMARK   19  A    between atoms: _58  and  _60
REMARK   20  A    between atoms: _60  and  _61
REMARK   21  A    between atoms: _60  and  _63
REMARK   22  A    between atoms: _63  and  _64
REMARK   23  A    between atoms: _69  and  _71
REMARK   24  A    between atoms: _71  and  _72
REMARK   25  A    between atoms: _75  and  _77
REMARK   26  A    between atoms: _77  and  _78
REMARK   27  A    between atoms: _77  and  _80
REMARK   28  A    between atoms: _80  and  _81
REMARK   29  A    between atoms: _86  and  _88
REMARK   30  A    between atoms: _88  and  _89
REMARK   31  A    between atoms: _88  and  _91
REMARK   32  A    between atoms: _91  and  _92
REMARK   33  A    between atoms: _95  and  _97
REMARK   34  A    between atoms: _97  and  _98
REMARK   35  A    between atoms: _97  and  _100
REMARK   36  A    between atoms: _100  and  _101
REMARK   37  A    between atoms: _101  and  _102
REMARK   38  A    between atoms: _107  and  _109
REMARK   39  A    between atoms: _109  and  _110
REMARK   40  A    between atoms: _109  and  _112
REMARK   41  A    between atoms: _112  and  _113
REMARK   42  A    between atoms: _119  and  _121
REMARK   43  A    between atoms: _132  and  _135
REMARK   44  A    between atoms: _135  and  _136
REMARK   45  A    between atoms: _144  and  _145
REMARK   46  A    between atoms: _153  and  _155
REMARK   47  A    between atoms: _155  and  _156
REMARK   48  A    between atoms: _155  and  _158
REMARK   49  A    between atoms: _158  and  _159
REMARK   50  A    between atoms: _159  and  _160
REMARK   51  A    between atoms: _163  and  _165
REMARK   52  A    between atoms: _165  and  _166
REMARK   53  A    between atoms: _165  and  _168
REMARK   54  A    between atoms: _168  and  _169
REMARK   55  A    between atoms: _174  and  _176
REMARK   56  A    between atoms: _176  and  _177
REMARK   57  A    between atoms: _176  and  _179
REMARK   58  A    between atoms: _179  and  _180
REMARK   59  A    between atoms: _180  and  _181
REMARK   60  A    between atoms: _184  and  _186
REMARK   61  A    between atoms: _186  and  _187
REMARK   62  A    between atoms: _186  and  _189
REMARK   63  A    between atoms: _189  and  _190
REMARK   64  A    between atoms: _193  and  _195
REMARK   65  A    between atoms: _195  and  _196
REMARK   66  A    between atoms: _195  and  _198
REMARK   67  A    between atoms: _198  and  _199
REMARK   68  A    between atoms: _200  and  ZN_447
REMARK   69  A    between atoms: _204  and  _206
REMARK   70  A    between atoms: _206  and  _207
REMARK   71  A    between atoms: _206  and  _209
REMARK   72  A    between atoms: _209  and  _210
REMARK   73  A    between atoms: _213  and  _215
REMARK   74  A    between atoms: _215  and  _216
REMARK   75  A    between atoms: _215  and  _218
REMARK   76  A    between atoms: _221  and  _223
REMARK   77  A    between atoms: _223  and  _224
REMARK   78  A    between atoms: _223  and  _226
REMARK   79  A    between atoms: _226  and  _227
REMARK   80  A    between atoms: _232  and  _234
REMARK   81  A    between atoms: _234  and  _235
REMARK   82  A    between atoms: _234  and  _237
REMARK   83  A    between atoms: _240  and  _242
REMARK   84  A    between atoms: _242  and  _243
REMARK   85  A    between atoms: _245  and  _247
REMARK   86  A    between atoms: _247  and  _248
REMARK   87  A    between atoms: _247  and  _250
REMARK   88  A    between atoms: _250  and  _251
REMARK   89  A    between atoms: _251  and  _252
REMARK   90  A    between atoms: _252  and  _253
REMARK   91  A    between atoms: _253  and  _254
REMARK   92  A    between atoms: _258  and  _260
REMARK   93  A    between atoms: _260  and  _261
REMARK   94  A    between atoms: _264  and  _266
REMARK   95  A    between atoms: _266  and  _267
REMARK   96  A    between atoms: _266  and  _269
REMARK   97  A    between atoms: _272  and  _274
REMARK   98  A    between atoms: _274  and  _275
REMARK   99  A    between atoms: _274  and  _277
REMARK  100  A    between atoms: _277  and  _278
REMARK  101  A    between atoms: _278  and  _279
REMARK  102  A    between atoms: _284  and  _286
REMARK  103  A    between atoms: _286  and  _287
REMARK  104  A    between atoms: _286  and  _289
REMARK  105  A    between atoms: _289  and  _290
REMARK  106  A    between atoms: _293  and  _295
REMARK  107  A    between atoms: _295  and  _296
REMARK  108  A    between atoms: _299  and  _301
REMARK  109  A    between atoms: _301  and  _302
REMARK  110  A    between atoms: _301  and  _304
REMARK  111  A    between atoms: _307  and  _309
REMARK  112  A    between atoms: _309  and  _310
REMARK  113  A    between atoms: _309  and  _312
REMARK  114  A    between atoms: _312  and  _313
REMARK  115  A    between atoms: _316  and  _318
REMARK  116  A    between atoms: _318  and  _319
REMARK  117  A    between atoms: _321  and  _323
REMARK  118  A    between atoms: _323  and  _324
REMARK  119  A    between atoms: _323  and  _326
REMARK  120  A    between atoms: _326  and  _327
REMARK  121  A    between atoms: _329  and  _331
REMARK  122  A    between atoms: _331  and  _332
REMARK  123  A    between atoms: _331  and  _334
REMARK  124  A    between atoms: _334  and  _335
REMARK  125  A    between atoms: _338  and  _340
REMARK  126  A    between atoms: _340  and  _341
REMARK  127  A    between atoms: _340  and  _343
REMARK  128  A    between atoms: _343  and  _344
REMARK  129  A    between atoms: _347  and  _349
REMARK  130  A    between atoms: _349  and  _350
REMARK  131  A    between atoms: _349  and  _352
REMARK  132  A    between atoms: _352  and  _353
REMARK  133  A    between atoms: _357  and  _358
REMARK  134  A    between atoms: _364  and  _365
REMARK  135  A    between atoms: _370  and  _372
REMARK  136  A    between atoms: _372  and  _373
REMARK  137  A    between atoms: _372  and  _375
REMARK  138  A    between atoms: _375  and  _376
REMARK  139  A    between atoms: _379  and  _381
REMARK  140  A    between atoms: _381  and  _382
REMARK  141  A    between atoms: _381  and  _384
REMARK  142  A    between atoms: _384  and  _385
REMARK  143  A    between atoms: _388  and  _390
REMARK  144  A    between atoms: _390  and  _391
REMARK  145  A    between atoms: _390  and  _393
REMARK  146  A    between atoms: _395  and  _397
REMARK  147  A    between atoms: _397  and  _398
REMARK  148  A    between atoms: _397  and  _400
REMARK  149  A    between atoms: _403  and  _405
REMARK  150  A    between atoms: _405  and  _406
REMARK  151  A    between atoms: _405  and  _408
REMARK  152  A    between atoms: _408  and  _409
REMARK  153  A    between atoms: _419  and  _421
REMARK  154  A    between atoms: _421  and  _422
REMARK  155  A    between atoms: _421  and  _424
REMARK  156  A    between atoms: _424  and  _425
REMARK  157  A    between atoms: _430  and  _432
REMARK  158  A    between atoms: _432  and  _433
REMARK  159  A    between atoms: _432  and  _435
REMARK  160  A    between atoms: _435  and  _436
REMARK  161  A    between atoms: _436  and  _437
REMARK  162  A    between atoms: _437  and  _438
REMARK                            x       y       z     vdW  Elec       q    Type
REMARK                         _______ _______ _______ _____ _____    ______ ____
ROOT
ATOM      1  C   UNK A   4     -10.355  -1.450  10.407  0.00  0.00    +0.000 C 
ATOM      2  C   UNK A   4     -10.417  -2.732  11.219  0.00  0.00    +0.000 C 
ATOM      3  O   UNK A   4     -11.044  -2.782  12.281  0.00  0.00    +0.000 OA
ATOM      4  N   VAL A   5      -9.734  -3.755  10.726  0.00  0.00    +0.000 N 
ATOM      5  CA  VAL A   5      -9.707  -5.057  11.380  0.00  0.00    +0.000 C 
ATOM      6  C   VAL A   5      -8.273  -5.515  11.578  0.00  0.00    +0.000 C 
ATOM      7  N   UNK A   6      -8.124  -6.543  12.399  0.00  0.00    +0.000 N 
ATOM      8  H   UNK A   6      -8.969  -6.901  12.888  0.00  0.00    +0.000 HD
ATOM      9  C   UNK A   6      -6.858  -7.202  12.660  0.00  0.00    +0.000 C 
ATOM     10  C   UNK A   6      -6.370  -6.937  14.087  0.00  0.00    +0.000 C 
ATOM     11  C   UNK A   6      -6.040  -5.500  14.357  0.00  0.00    +0.000 A 
ATOM     12  C   UNK A   6      -6.837  -4.476  14.753  0.00  0.00    +0.000 A 
ATOM     13  N   UNK A   6      -6.093  -3.285  14.826  0.00  0.00    +0.000 N 
ATOM     14 ZN   UNK A   6      -6.875  -1.671  15.291  0.00  0.00    +0.000 Zn
ATOM     15  N   UNK A   4      -7.520  -0.673  13.845  0.00  0.00    +0.000 N 
ATOM     16  C   UNK A   4      -8.073   0.510  13.641  0.00  0.00    +0.000 A 
ATOM     17  N   UNK A   4      -8.607   0.595  12.414  0.00  0.00    +0.000 NA
ATOM     18  C   UNK A   4      -8.400  -0.604  11.775  0.00  0.00    +0.000 A 
ATOM     19  C   UNK A   4      -7.724  -1.378  12.661  0.00  0.00    +0.000 A 
ATOM     20  C   UNK A   6      -4.871  -3.636  14.472  0.00  0.00    +0.000 A 
ATOM     21  N   UNK A   6      -4.793  -4.951  14.187  0.00  0.00    +0.000 NA
ATOM     22  O   VAL A   5      -7.337  -4.957  11.010  0.00  0.00    +0.000 OA
ATOM     23  H   VAL A   5      -9.200  -3.624   9.843  0.00  0.00    +0.000 HD
ATOM     24  C   UNK A   4      -8.916  -0.925  10.407  0.00  0.00    +0.000 C 
ENDROOT
BRANCH  14  25
ATOM     25  N   UNK A   6      -8.161  -2.277  16.439  0.00  0.00    +0.000 N 
ATOM     26  C   UNK A   6      -7.827  -3.201  17.319  0.00  0.00    +0.000 A 
ATOM     27  N   UNK A   6      -8.889  -3.625  18.028  0.00  0.00    +0.000 NA
ATOM     28  C   UNK A   6      -9.980  -2.926  17.576  0.00  0.00    +0.000 A 
ATOM     29  C   UNK A   6      -9.529  -2.099  16.598  0.00  0.00    +0.000 A 
BRANCH  29  30
ATOM     30  C   UNK A   6     -10.295  -1.088  15.800  0.00  0.00    +0.000 C 
BRANCH  30  31
ATOM     31  C   UNK A   6     -11.806  -1.381  15.701  0.00  0.00    +0.000 C 
BRANCH  31  32
ATOM     32  C   UNK A   6     -12.493  -0.195  15.035  0.00  0.00    +0.000 C 
ATOM     33  N   UNK A   4     -13.458   0.401  15.733  0.00  0.00    +0.000 N 
ATOM     34  H   UNK A   4     -13.725   0.002  16.655  0.00  0.00    +0.000 HD
ATOM     35  O   UNK A   6     -12.196   0.121  13.872  0.00  0.00    +0.000 OA
BRANCH  33  36
ATOM     36  C   UNK A   4     -14.161   1.597  15.256  0.00  0.00    +0.000 C 
BRANCH  36  37
ATOM     37  C   UNK A   4     -13.557   2.764  16.036  0.00  0.00    +0.000 C 
ATOM     38  O   UNK A   4     -13.777   2.918  17.251  0.00  0.00    +0.000 OA
ATOM     39  N   VAL A   5     -12.741   3.537  15.335  0.00  0.00    +0.000 N 
ATOM     40  H   VAL A   5     -12.635   3.344  14.319  0.00  0.00    +0.000 HD
BRANCH  39  41
ATOM     41  CA  VAL A   5     -11.983   4.643  15.907  0.00  0.00    +0.000 C 
BRANCH  41  42
ATOM     42  C   VAL A   5     -12.731   5.961  15.915  0.00  0.00    +0.000 C 
ATOM     43  N   UNK A   6     -12.787   6.593  17.091  0.00  0.00    +0.000 N 
ATOM     44  H   UNK A   6     -12.321   6.159  17.913  0.00  0.00    +0.000 HD
ATOM     45  O   VAL A   5     -13.238   6.403  14.870  0.00  0.00    +0.000 OA
BRANCH  43  46
ATOM     46  C   UNK A   6     -13.478   7.874  17.270  0.00  0.00    +0.000 C 
BRANCH  46  47
ATOM     47  C   UNK A   6     -12.535   8.837  17.983  0.00  0.00    +0.000 C 
ATOM     48  O   UNK A   6     -11.700   8.410  18.784  0.00  0.00    +0.000 OA
ENDBRANCH  46  47
BRANCH  46  49
ATOM     49  C   UNK A   6     -14.710   7.716  18.170  0.00  0.00    +0.000 C 
BRANCH  49  50
ATOM     50  C   UNK A   6     -15.650   6.628  17.760  0.00  0.00    +0.000 A 
ATOM     51  N   UNK A   6     -15.376   5.292  17.956  0.00  0.00    +0.000 NA
ATOM     52  C   UNK A   6     -16.384   4.568  17.505  0.00  0.00    +0.000 A 
ATOM     53  N   UNK A   6     -17.306   5.386  17.027  0.00  0.00    +0.000 NA
ATOM     54  C   UNK A   6     -16.874   6.680  17.175  0.00  0.00    +0.000 A 
ENDBRANCH  49  50
ENDBRANCH  46  49
ENDBRANCH  43  46
ENDBRANCH  41  42
BRANCH  41  55
ATOM     55  CB  VAL A   5     -10.642   4.814  15.132  0.00  0.00    +0.000 C 
ATOM     56  CG2 VAL A   5      -9.727   5.832  15.816  0.00  0.00    +0.000 C 
ATOM     57  CG1 VAL A   5      -9.952   3.481  14.977  0.00  0.00    +0.000 C 
ENDBRANCH  41  55
ENDBRANCH  39  41
ENDBRANCH  36  37
BRANCH  36  58
ATOM     58  C   UNK A   4     -15.667   1.472  15.477  0.00  0.00    +0.000 C 
BRANCH  58  59
ATOM     59  C   UNK A   4     -16.346   0.401  14.589  0.00  0.00    +0.000 C 
ATOM     60  C   UNK A   4     -17.137  -0.582  15.426  0.00  0.00    +0.000 C 
ATOM     61  C   UNK A   4     -17.257   1.077  13.567  0.00  0.00    +0.000 C 
ENDBRANCH  58  59
ENDBRANCH  36  58
ENDBRANCH  33  36
ENDBRANCH  31  32
BRANCH  31  62
ATOM     62  N   UNK A   6     -12.041  -2.582  14.919  0.00  0.00    +0.000 N 
ATOM     63  C   LEU A   2     -12.692  -3.625  15.413  0.00  0.00    +0.000 C 
ATOM     64  O   LEU A   2     -13.128  -3.657  16.558  0.00  0.00    +0.000 OA
ATOM     65  H   UNK A   6     -11.688  -2.625  13.942  0.00  0.00    +0.000 HD
BRANCH  63  66
ATOM     66  CA  LEU A   2     -12.887  -4.809  14.475  0.00  0.00    +0.000 C 
BRANCH  66  67
ATOM     67  N   LEU A   2     -12.519  -6.040  15.149  0.00  0.00    +0.000 N 
ATOM     68  H   LEU A   2     -13.200  -6.472  15.806  0.00  0.00    +0.000 HD
ATOM     69  C   GLU A   1     -11.352  -6.636  14.961  0.00  0.00    +0.000 C 
ATOM     70  O   GLU A   1     -10.500  -6.216  14.170  0.00  0.00    +0.000 OA
BRANCH  69  71
ATOM     71  CA  GLU A   1     -11.124  -7.913  15.760  0.00  0.00    +0.000 C 
BRANCH  71  72
ATOM     72  N   GLU A   1     -10.561  -8.937  14.900  0.00  0.00    +0.000 NA
ATOM     73  H   GLU A   1      -9.864  -8.669  14.176  0.00  0.00    +0.000 HD
ENDBRANCH  71  72
BRANCH  71  74
ATOM     74  CB  GLU A   1     -10.183  -7.645  16.942  0.00  0.00    +0.000 C 
BRANCH  74  75
ATOM     75  CG  GLU A   1     -10.748  -6.690  18.008  0.00  0.00    +0.000 C 
BRANCH  75  76
ATOM     76  CD  GLU A   1      -9.831  -6.568  19.215  0.00  0.00    +0.000 C 
ATOM     77  OE2 GLU A   1      -9.790  -5.486  19.814  0.00  0.00    +0.000 OA
ATOM     78  OE1 GLU A   1      -9.178  -7.569  19.571  0.00  0.00    +0.000 OA
ENDBRANCH  75  76
ENDBRANCH  74  75
ENDBRANCH  71  74
ENDBRANCH  69  71
ENDBRANCH  66  67
BRANCH  66  79
ATOM     79  CB  LEU A   2     -14.352  -4.892  14.040  0.00  0.00    +0.000 C 
BRANCH  79  80
ATOM     80  CG  LEU A   2     -15.083  -3.609  13.683  0.00  0.00    +0.000 C 
ATOM     81  CD2 LEU A   2     -16.536  -3.970  13.452  0.00  0.00    +0.000 C 
ATOM     82  CD1 LEU A   2     -14.486  -2.948  12.432  0.00  0.00    +0.000 C 
ENDBRANCH  79  80
ENDBRANCH  66  79
ENDBRANCH  63  66
ENDBRANCH  31  62
ENDBRANCH  30  31
ENDBRANCH  29  30
ENDBRANCH  14  25
BRANCH   1  84
ATOM     83  C   UNK A   3     -11.846   0.501  10.332  0.00  0.00    +0.000 C 
ATOM     84  N   UNK A   4     -11.256  -0.482  11.016  0.00  0.00    +0.000 N 
ATOM     85  H   UNK A   4     -11.450  -0.560  12.035  0.00  0.00    +0.000 HD
ATOM     86  O   UNK A   3     -11.617   0.738   9.132  0.00  0.00    +0.000 OA
BRANCH  83  87
ATOM     87  C   UNK A   3     -12.739   1.427  11.138  0.00  0.00    +0.000 C 
BRANCH  87  90
ATOM     88  C   LEU A   2     -12.607   3.848  11.255  0.00  0.00    +0.000 C 
ATOM     89  O   LEU A   2     -12.806   3.857  12.471  0.00  0.00    +0.000 OA
ATOM     90  N   UNK A   3     -12.673   2.742  10.520  0.00  0.00    +0.000 N 
ATOM     91  H   UNK A   3     -12.678   2.819   9.483  0.00  0.00    +0.000 HD
BRANCH  88  92
ATOM     92  CA  LEU A   2     -12.407   5.155  10.494  0.00  0.00    +0.000 C 
BRANCH  92  94
ATOM     93  C   GLU A   1     -12.856   7.536  10.788  0.00  0.00    +0.000 C 
ATOM     94  N   LEU A   2     -12.674   6.331  11.325  0.00  0.00    +0.000 N 
ATOM     95  H   LEU A   2     -12.723   6.223  12.358  0.00  0.00    +0.000 HD
ATOM     96  O   GLU A   1     -12.818   7.733   9.571  0.00  0.00    +0.000 OA
BRANCH  93  97
ATOM     97  CA  GLU A   1     -13.157   8.687  11.750  0.00  0.00    +0.000 C 
BRANCH  97  98
ATOM     98  CB  GLU A   1     -11.863   9.379  12.256  0.00  0.00    +0.000 C 
ATOM     99  CG2 GLU A   1     -11.078   8.461  13.187  0.00  0.00    +0.000 C 
BRANCH  98 100
ATOM    100  CG1 GLU A   1     -11.026   9.856  11.057  0.00  0.00    +0.000 C 
ATOM    101  CD1 GLU A   1      -9.707  10.486  11.421  0.00  0.00    +0.000 C 
ENDBRANCH  98 100
ENDBRANCH  97  98
BRANCH  97 102
ATOM    102  N   GLU A   1     -14.000   8.228  12.836  0.00  0.00    +0.000 NA
ATOM    103  H   GLU A   1     -13.642   7.528  13.517  0.00  0.00    +0.000 HD
ENDBRANCH  97 102
ENDBRANCH  93  97
ENDBRANCH  92  94
BRANCH  92 104
ATOM    104  CB  LEU A   2     -10.972   5.193   9.956  0.00  0.00    +0.000 C 
BRANCH 104 105
ATOM    105  CG  LEU A   2      -9.867   5.324  11.030  0.00  0.00    +0.000 C 
BRANCH 105 106
ATOM    106  CD  LEU A   2      -9.102   4.030  11.294  0.00  0.00    +0.000 C 
ATOM    107  NE2 LEU A   2      -7.826   4.163  11.648  0.00  0.00    +0.000 N 
ATOM    108 HE21 LEU A   2      -7.249   3.319  11.840  0.00  0.00    +0.000 HD
ATOM    109 HE22 LEU A   2      -7.406   5.111  11.732  0.00  0.00    +0.000 HD
ATOM    110  OE1 LEU A   2      -9.643   2.929  11.181  0.00  0.00    +0.000 OA
ENDBRANCH 105 106
ENDBRANCH 104 105
ENDBRANCH  92 104
ENDBRANCH  88  92
ENDBRANCH  87  90
BRANCH  87 111
ATOM    111  C   UNK A   3     -14.173   0.892  11.361  0.00  0.00    +0.000 C 
BRANCH 111 112
ATOM    112  C   UNK A   3     -14.888   0.406  10.120  0.00  0.00    +0.000 A 
ATOM    113  C   UNK A   3     -15.999   1.089   9.647  0.00  0.00    +0.000 A 
ATOM    114  C   UNK A   3     -16.742   0.601   8.580  0.00  0.00    +0.000 A 
ATOM    115  C   UNK A   3     -16.370  -0.590   7.963  0.00  0.00    +0.000 A 
ATOM    116  C   UNK A   3     -15.249  -1.291   8.420  0.00  0.00    +0.000 A 
ATOM    117  C   UNK A   3     -14.518  -0.787   9.495  0.00  0.00    +0.000 A 
ENDBRANCH 111 112
ENDBRANCH  87 111
ENDBRANCH  83  87
ENDBRANCH   1  84
BRANCH   9 118
ATOM    118  C   UNK A   6      -7.328  -8.650  12.520  0.00  0.00    +0.000 C 
ATOM    119  O   UNK A   6      -8.422  -8.986  12.990  0.00  0.00    +0.000 OA
ENDBRANCH   9 118
BRANCH   5 120
ATOM    120  CB  VAL A   5     -10.401  -6.122  10.504  0.00  0.00    +0.000 C 
BRANCH 120 121
ATOM    121  CG  VAL A   5     -11.840  -5.813  10.154  0.00  0.00    +0.000 A 
ATOM    122  CD2 VAL A   5     -12.879  -6.474  10.790  0.00  0.00    +0.000 A 
ATOM    123  CE2 VAL A   5     -14.214  -6.230  10.432  0.00  0.00    +0.000 A 
ATOM    124  CZ  VAL A   5     -14.508  -5.316   9.433  0.00  0.00    +0.000 A 
ATOM    125  CE1 VAL A   5     -13.483  -4.646   8.793  0.00  0.00    +0.000 A 
ATOM    126  CD1 VAL A   5     -12.152  -4.895   9.154  0.00  0.00    +0.000 A 
ENDBRANCH 120 121
ENDBRANCH   5 120
TORSDOF 42
REMARK  Name = ../refined-set-2016/1g48/1g48_pocket.pdb
REMARK  162 active torsions:
REMARK  status: ('A' for Active; 'I' for Inactive)
REMARK    1  A    between atoms: _1  and  _3
REMARK    2  A    between atoms: _3  and  _4
REMARK    3  A    between atoms: _3  and  _6
REMARK    4  A    between atoms: _6  and  _7
REMARK    5  A    between atoms: _17  and  _19
REMARK    6  A    between atoms: _19  and  _20
REMARK    7  A    between atoms: _19  and  _22
REMARK    8  A    between atoms: _22  and  _23
REMARK    9  A    between atoms: _28  and  _29
REMARK   10  A    between atoms: _31  and  _33
REMARK   11  A    between atoms: _33  and  _34
REMARK   12  A    between atoms: _33  and  _36
REMARK   13  A    between atoms: _36  and  _37
REMARK   14  A    between atoms: _43  and  _45
REMARK   15  A    between atoms: _45  and  _46
REMARK   16  A    between atoms: _45  and  _48
REMARK   17  A    between atoms: _48  and  _49
REMARK   18  A    between atoms: _52  and  _53
REMARK   19  A    between atoms: _58  and  _60
REMARK   20  A    between atoms: _60  and  _61
REMARK   21  A    between atoms: _60  and  _63
REMARK   22  A    between atoms: _63  and  _64
REMARK   23  A    between atoms: _69  and  _71
REMARK   24  A    between atoms: _71  and  _72
REMARK   25  A    between atoms: _75  and  _77
REMARK   26  A    between atoms: _77  and  _78
REMARK   27  A    between atoms: _77  and  _80
REMARK   28  A    between atoms: _80  and  _81
REMARK   29  A    between atoms: _86  and  _88
REMARK   30  A    between atoms: _88  and  _89
REMARK   31  A    between atoms: _88  and  _91
REMARK   32  A    between atoms: _91  and  _92
REMARK   33  A    between atoms: _95  and  _97
REMARK   34  A    between atoms: _97  and  _98
REMARK   35  A    between atoms: _97  and  _100
REMARK   36  A    between atoms: _100  and  _101
REMARK   37  A    between atoms: _101  and  _102
REMARK   38  A    between atoms: _107  and  _109
REMARK   39  A    between atoms: _109  and  _110
REMARK   40  A    between atoms: _109  and  _112
REMARK   41  A    between atoms: _112  and  _113
REMARK   42  A    between atoms: _119  and  _121
REMARK   43  A    between atoms: _132  and  _135
REMARK   44  A    between atoms: _135  and  _136
REMARK   45  A    between atoms: _144  and  _145
REMARK   46  A    between atoms: _153  and  _155
REMARK   47  A    between atoms: _155  and  _156
REMARK   48  A    between atoms: _155  and  _158
REMARK   49  A    between atoms: _158  and  _159
REMARK   50  A    between atoms: _159  and  _160
REMARK   51  A    between atoms: _163  and  _165
REMARK   52  A    between atoms: _165  and  _166
REMARK   53  A    between atoms: _165  and  _168
REMARK   54  A    between atoms: _168  and  _169
REMARK   55  A    between atoms: _174  and  _176
REMARK   56  A    between atoms: _176  and  _177
REMARK   57  A    between atoms: _176  and  _179
REMARK   58  A    between atoms: _179  and  _180
REMARK   59  A    between atoms: _180  and  _181
REMARK   60  A    between atoms: _184  and  _186
REMARK   61  A    between atoms: _186  and  _187
REMARK   62  A    between atoms: _186  and  _189
REMARK   63  A    between atoms: _189  and  _190
REMARK   64  A    between atoms: _193  and  _195
REMARK   65  A    between atoms: _195  and  _196
REMARK   66  A    between atoms: _195  and  _198
REMARK   67  A    between atoms: _198  and  _199
REMARK   68  A    between atoms: _200  and  ZN_447
REMARK   69  A    between atoms: _204  and  _206
REMARK   70  A    between atoms: _206  and  _207
REMARK   71  A    between atoms: _206  and  _209
REMARK   72  A    between atoms: _209  and  _210
REMARK   73  A    between atoms: _213  and  _215
REMARK   74  A    between atoms: _215  and  _216
REMARK   75  A    between atoms: _215  and  _218
REMARK   76  A    between atoms: _221  and  _223
REMARK   77  A    between atoms: _223  and  _224
REMARK   78  A    between atoms: _223  and  _226
REMARK   79  A    between atoms: _226  and  _227
REMARK   80  A    between atoms: _232  and  _234
REMARK   81  A    between atoms: _234  and  _235
REMARK   82  A    between atoms: _234  and  _237
REMARK   83  A    between atoms: _240  and  _242
REMARK   84  A    between atoms: _242  and  _243
REMARK   85  A    between atoms: _245  and  _247
REMARK   86  A    between atoms: _247  and  _248
REMARK   87  A    between atoms: _247  and  _250
REMARK   88  A    between atoms: _250  and  _251
REMARK   89  A    between atoms: _251  and  _252
REMARK   90  A    between atoms: _252  and  _253
REMARK   91  A    between atoms: _253  and  _254
REMARK   92  A    between atoms: _258  and  _260
REMARK   93  A    between atoms: _260  and  _261
REMARK   94  A    between atoms: _264  and  _266
REMARK   95  A    between atoms: _266  and  _267
REMARK   96  A    between atoms: _266  and  _269
REMARK   97  A    between atoms: _272  and  _274
REMARK   98  A    between atoms: _274  and  _275
REMARK   99  A    between atoms: _274  and  _277
REMARK  100  A    between atoms: _277  and  _278
REMARK  101  A    between atoms: _278  and  _279
REMARK  102  A    between atoms: _284  and  _286
REMARK  103  A    between atoms: _286  and  _287
REMARK  104  A    between atoms: _286  and  _289
REMARK  105  A    between atoms: _289  and  _290
REMARK  106  A    between atoms: _293  and  _295
REMARK  107  A    between atoms: _295  and  _296
REMARK  108  A    between atoms: _299  and  _301
REMARK  109  A    between atoms: _301  and  _302
REMARK  110  A    between atoms: _301  and  _304
REMARK  111  A    between atoms: _307  and  _309
REMARK  112  A    between atoms: _309  and  _310
REMARK  113  A    between atoms: _309  and  _312
REMARK  114  A    between atoms: _312  and  _313
REMARK  115  A    between atoms: _316  and  _318
REMARK  116  A    between atoms: _318  and  _319
REMARK  117  A    between atoms: _321  and  _323
REMARK  118  A    between atoms: _323  and  _324
REMARK  119  A    between atoms: _323  and  _326
REMARK  120  A    between atoms: _326  and  _327
REMARK  121  A    between atoms: _329  and  _331
REMARK  122  A    between atoms: _331  and  _332
REMARK  123  A    between atoms: _331  and  _334
REMARK  124  A    between atoms: _334  and  _335
REMARK  125  A    between atoms: _338  and  _340
REMARK  126  A    between atoms: _340  and  _341
REMARK  127  A    between atoms: _340  and  _343
REMARK  128  A    between atoms: _343  and  _344
REMARK  129  A    between atoms: _347  and  _349
REMARK  130  A    between atoms: _349  and  _350
REMARK  131  A    between atoms: _349  and  _352
REMARK  132  A    between atoms: _352  and  _353
REMARK  133  A    between atoms: _357  and  _358
REMARK  134  A    between atoms: _364  and  _365
REMARK  135  A    between atoms: _370  and  _372
REMARK  136  A    between atoms: _372  and  _373
REMARK  137  A    between atoms: _372  and  _375
REMARK  138  A    between atoms: _375  and  _376
REMARK  139  A    between atoms: _379  and  _381
REMARK  140  A    between atoms: _381  and  _382
REMARK  141  A    between atoms: _381  and  _384
REMARK  142  A    between atoms: _384  and  _385
REMARK  143  A    between atoms: _388  and  _390
REMARK  144  A    between atoms: _390  and  _391
REMARK  145  A    between atoms: _390  and  _393
REMARK  146  A    between atoms: _395  and  _397
REMARK  147  A    between atoms: _397  and  _398
REMARK  148  A    between atoms: _397  and  _400
REMARK  149  A    between atoms: _403  and  _405
REMARK  150  A    between atoms: _405  and  _406
REMARK  151  A    between atoms: _405  and  _408
REMARK  152  A    between atoms: _408  and  _409
REMARK  153  A    between atoms: _419  and  _421
REMARK  154  A    between atoms: _421  and  _422
REMARK  155  A    between atoms: _421  and  _424
REMARK  156  A    between atoms: _424  and  _425
REMARK  157  A    between atoms: _430  and  _432
REMARK  158  A    between atoms: _432  and  _433
REMARK  159  A    between atoms: _432  and  _435
REMARK  160  A    between atoms: _435  and  _436
REMARK  161  A    between atoms: _436  and  _437
REMARK  162  A    between atoms: _437  and  _438
REMARK                            x       y       z     vdW  Elec       q    Type
REMARK                         _______ _______ _______ _____ _____    ______ ____
ROOT
ATOM      1  C   GLU A   1      -6.017  -8.495  21.117  0.00  0.00    +0.238 C 
ATOM      2  O   GLU A   1      -5.172  -8.979  21.868  0.00  0.00    -0.274 OA
ATOM      3  N   HIS A   2      -7.235  -8.161  21.526  0.00  0.00    -0.298 N 
ATOM      4  H   HIS A   2      -7.896  -7.717  20.857  0.00  0.00    +0.150 HD
ENDROOT
BRANCH   1   5
ATOM      5  CA  GLU A   1      -5.720  -8.262  19.637  0.00  0.00    +0.145 C 
BRANCH   5   6
ATOM      6  N   GLU A   1      -6.791  -8.906  18.885  0.00  0.00    -0.238 NA
ATOM      7  H   GLU A   1      -7.671  -8.382  18.706  0.00  0.00    +0.142 HD
ENDBRANCH   5   6
BRANCH   5   8
ATOM      8  CB  GLU A   1      -5.635  -6.779  19.273  0.00  0.00    +0.038 C 
BRANCH   8   9
ATOM      9  CG  GLU A   1      -5.198  -6.593  17.813  0.00  0.00    +0.116 C 
BRANCH   9  10
ATOM     10  CD  GLU A   1      -4.430  -5.331  17.586  0.00  0.00    +0.365 C 
ATOM     11  OE2 GLU A   1      -5.003  -4.240  17.734  0.00  0.00    -0.246 OA
ATOM     12  OE1 GLU A   1      -3.239  -5.427  17.261  0.00  0.00    -0.246 OA
ENDBRANCH   9  10
ENDBRANCH   8   9
ENDBRANCH   5   8
ENDBRANCH   1   5
BRANCH   3  13
ATOM     13  CA  HIS A   2      -7.658  -8.406  22.895  0.00  0.00    +0.143 C 
BRANCH  13  14
ATOM     14  C   HIS A   2      -8.029  -9.867  22.935  0.00  0.00    +0.227 C 
ATOM     15  O   HIS A   2      -8.330 -10.461  21.889  0.00  0.00    -0.286 OA
ENDBRANCH  13  14
BRANCH  13  16
ATOM     16  CB  HIS A   2      -8.869  -7.554  23.255  0.00  0.00    +0.075 C 
BRANCH  16  17
ATOM     17  CG  HIS A   2      -8.535  -6.111  23.457  0.00  0.00    +0.082 A 
ATOM     18  CD2 HIS A   2      -8.033  -5.457  24.534  0.00  0.00    +0.115 A 
ATOM     19  NE2 HIS A   2      -7.808  -4.159  24.149  0.00  0.00    -0.221 NA
ATOM     20  CE1 HIS A   2      -8.160  -4.017  22.883  0.00  0.00    +0.199 A 
ATOM     21  ND1 HIS A   2      -8.609  -5.180  22.443  0.00  0.00    -0.227 NA
ENDBRANCH  16  17
ENDBRANCH  13  16
ENDBRANCH   3  13
TORSDOF 9
REMARK  Name = ../refined-set-2016/1g48/1g48_pocket.pdb
REMARK  162 active torsions:
REMARK  status: ('A' for Active; 'I' for Inactive)
REMARK    1  A    between atoms: _1  and  _3
REMARK    2  A    between atoms: _3  and  _4
REMARK    3  A    between atoms: _3  and  _6
REMARK    4  A    between atoms: _6  and  _7
REMARK    5  A    between atoms: _17  and  _19
REMARK    6  A    between atoms: _19  and  _20
REMARK    7  A    between atoms: _19  and  _22
REMARK    8  A    between atoms: _22  and  _23
REMARK    9  A    between atoms: _28  and  _29
REMARK   10  A    between atoms: _31  and  _33
REMARK   11  A    between atoms: _33  and  _34
REMARK   12  A    between atoms: _33  and  _36
REMARK   13  A    between atoms: _36  and  _37
REMARK   14  A    between atoms: _43  and  _45
REMARK   15  A    between atoms: _45  and  _46
REMARK   16  A    between atoms: _45  and  _48
REMARK   17  A    between atoms: _48  and  _49
REMARK   18  A    between atoms: _52  and  _53
REMARK   19  A    between atoms: _58  and  _60
REMARK   20  A    between atoms: _60  and  _61
REMARK   21  A    between atoms: _60  and  _63
REMARK   22  A    between atoms: _63  and  _64
REMARK   23  A    between atoms: _69  and  _71
REMARK   24  A    between atoms: _71  and  _72
REMARK   25  A    between atoms: _75  and  _77
REMARK   26  A    between atoms: _77  and  _78
REMARK   27  A    between atoms: _77  and  _80
REMARK   28  A    between atoms: _80  and  _81
REMARK   29  A    between atoms: _86  and  _88
REMARK   30  A    between atoms: _88  and  _89
REMARK   31  A    between atoms: _88  and  _91
REMARK   32  A    between atoms: _91  and  _92
REMARK   33  A    between atoms: _95  and  _97
REMARK   34  A    between atoms: _97  and  _98
REMARK   35  A    between atoms: _97  and  _100
REMARK   36  A    between atoms: _100  and  _101
REMARK   37  A    between atoms: _101  and  _102
REMARK   38  A    between atoms: _107  and  _109
REMARK   39  A    between atoms: _109  and  _110
REMARK   40  A    between atoms: _109  and  _112
REMARK   41  A    between atoms: _112  and  _113
REMARK   42  A    between atoms: _119  and  _121
REMARK   43  A    between atoms: _132  and  _135
REMARK   44  A    between atoms: _135  and  _136
REMARK   45  A    between atoms: _144  and  _145
REMARK   46  A    between atoms: _153  and  _155
REMARK   47  A    between atoms: _155  and  _156
REMARK   48  A    between atoms: _155  and  _158
REMARK   49  A    between atoms: _158  and  _159
REMARK   50  A    between atoms: _159  and  _160
REMARK   51  A    between atoms: _163  and  _165
REMARK   52  A    between atoms: _165  and  _166
REMARK   53  A    between atoms: _165  and  _168
REMARK   54  A    between atoms: _168  and  _169
REMARK   55  A    between atoms: _174  and  _176
REMARK   56  A    between atoms: _176  and  _177
REMARK   57  A    between atoms: _176  and  _179
REMARK   58  A    between atoms: _179  and  _180
REMARK   59  A    between atoms: _180  and  _181
REMARK   60  A    between atoms: _184  and  _186
REMARK   61  A    between atoms: _186  and  _187
REMARK   62  A    between atoms: _186  and  _189
REMARK   63  A    between atoms: _189  and  _190
REMARK   64  A    between atoms: _193  and  _195
REMARK   65  A    between atoms: _195  and  _196
REMARK   66  A    between atoms: _195  and  _198
REMARK   67  A    between atoms: _198  and  _199
REMARK   68  A    between atoms: _200  and  ZN_447
REMARK   69  A    between atoms: _204  and  _206
REMARK   70  A    between atoms: _206  and  _207
REMARK   71  A    between atoms: _206  and  _209
REMARK   72  A    between atoms: _209  and  _210
REMARK   73  A    between atoms: _213  and  _215
REMARK   74  A    between atoms: _215  and  _216
REMARK   75  A    between atoms: _215  and  _218
REMARK   76  A    between atoms: _221  and  _223
REMARK   77  A    between atoms: _223  and  _224
REMARK   78  A    between atoms: _223  and  _226
REMARK   79  A    between atoms: _226  and  _227
REMARK   80  A    between atoms: _232  and  _234
REMARK   81  A    between atoms: _234  and  _235
REMARK   82  A    between atoms: _234  and  _237
REMARK   83  A    between atoms: _240  and  _242
REMARK   84  A    between atoms: _242  and  _243
REMARK   85  A    between atoms: _245  and  _247
REMARK   86  A    between atoms: _247  and  _248
REMARK   87  A    between atoms: _247  and  _250
REMARK   88  A    between atoms: _250  and  _251
REMARK   89  A    between atoms: _251  and  _252
REMARK   90  A    between atoms: _252  and  _253
REMARK   91  A    between atoms: _253  and  _254
REMARK   92  A    between atoms: _258  and  _260
REMARK   93  A    between atoms: _260  and  _261
REMARK   94  A    between atoms: _264  and  _266
REMARK   95  A    between atoms: _266  and  _267
REMARK   96  A    between atoms: _266  and  _269
REMARK   97  A    between atoms: _272  and  _274
REMARK   98  A    between atoms: _274  and  _275
REMARK   99  A    between atoms: _274  and  _277
REMARK  100  A    between atoms: _277  and  _278
REMARK  101  A    between atoms: _278  and  _279
REMARK  102  A    between atoms: _284  and  _286
REMARK  103  A    between atoms: _286  and  _287
REMARK  104  A    between atoms: _286  and  _289
REMARK  105  A    between atoms: _289  and  _290
REMARK  106  A    between atoms: _293  and  _295
REMARK  107  A    between atoms: _295  and  _296
REMARK  108  A    between atoms: _299  and  _301
REMARK  109  A    between atoms: _301  and  _302
REMARK  110  A    between atoms: _301  and  _304
REMARK  111  A    between atoms: _307  and  _309
REMARK  112  A    between atoms: _309  and  _310
REMARK  113  A    between atoms: _309  and  _312
REMARK  114  A    between atoms: _312  and  _313
REMARK  115  A    between atoms: _316  and  _318
REMARK  116  A    between atoms: _318  and  _319
REMARK  117  A    between atoms: _321  and  _323
REMARK  118  A    between atoms: _323  and  _324
REMARK  119  A    between atoms: _323  and  _326
REMARK  120  A    between atoms: _326  and  _327
REMARK  121  A    between atoms: _329  and  _331
REMARK  122  A    between atoms: _331  and  _332
REMARK  123  A    between atoms: _331  and  _334
REMARK  124  A    between atoms: _334  and  _335
REMARK  125  A    between atoms: _338  and  _340
REMARK  126  A    between atoms: _340  and  _341
REMARK  127  A    between atoms: _340  and  _343
REMARK  128  A    between atoms: _343  and  _344
REMARK  129  A    between atoms: _347  and  _349
REMARK  130  A    between atoms: _349  and  _350
REMARK  131  A    between atoms: _349  and  _352
REMARK  132  A    between atoms: _352  and  _353
REMARK  133  A    between atoms: _357  and  _358
REMARK  134  A    between atoms: _364  and  _365
REMARK  135  A    between atoms: _370  and  _372
REMARK  136  A    between atoms: _372  and  _373
REMARK  137  A    between atoms: _372  and  _375
REMARK  138  A    between atoms: _375  and  _376
REMARK  139  A    between atoms: _379  and  _381
REMARK  140  A    between atoms: _381  and  _382
REMARK  141  A    between atoms: _381  and  _384
REMARK  142  A    between atoms: _384  and  _385
REMARK  143  A    between atoms: _388  and  _390
REMARK  144  A    between atoms: _390  and  _391
REMARK  145  A    between atoms: _390  and  _393
REMARK  146  A    between atoms: _395  and  _397
REMARK  147  A    between atoms: _397  and  _398
REMARK  148  A    between atoms: _397  and  _400
REMARK  149  A    between atoms: _403  and  _405
REMARK  150  A    between atoms: _405  and  _406
REMARK  151  A    between atoms: _405  and  _408
REMARK  152  A    between atoms: _408  and  _409
REMARK  153  A    between atoms: _419  and  _421
REMARK  154  A    between atoms: _421  and  _422
REMARK  155  A    between atoms: _421  and  _424
REMARK  156  A    between atoms: _424  and  _425
REMARK  157  A    between atoms: _430  and  _432
REMARK  158  A    between atoms: _432  and  _433
REMARK  159  A    between atoms: _432  and  _435
REMARK  160  A    between atoms: _435  and  _436
REMARK  161  A    between atoms: _436  and  _437
REMARK  162  A    between atoms: _437  and  _438
REMARK                            x       y       z     vdW  Elec       q    Type
REMARK                         _______ _______ _______ _____ _____    ______ ____
ROOT
ATOM      1  C   LYS A   3      -5.047  16.147  19.680  0.00  0.00    +0.241 C 
ATOM      2  O   LYS A   3      -4.398  15.920  20.693  0.00  0.00    -0.273 OA
ATOM      3  N   ALA A   4      -6.156  15.487  19.357  0.00  0.00    -0.297 N 
ATOM      4  H   ALA A   4      -6.647  15.745  18.477  0.00  0.00    +0.150 HD
ENDROOT
BRANCH   3   5
ATOM      5  CA  ALA A   4      -6.718  14.418  20.177  0.00  0.00    +0.149 C 
ATOM      6  CB  ALA A   4      -7.934  13.806  19.466  0.00  0.00    +0.031 C 
BRANCH   5   7
ATOM      7  C   ALA A   4      -5.713  13.319  20.563  0.00  0.00    +0.241 C 
ATOM      8  O   ALA A   4      -5.750  12.803  21.685  0.00  0.00    -0.273 OA
ATOM      9  N   VAL A   5      -4.813  12.956  19.653  0.00  0.00    -0.297 N 
ATOM     10  H   VAL A   5      -4.802  13.419  18.722  0.00  0.00    +0.150 HD
BRANCH   9  11
ATOM     11  CA  VAL A   5      -3.835  11.905  19.958  0.00  0.00    +0.149 C 
BRANCH  11  12
ATOM     12  C   VAL A   5      -2.774  12.320  21.000  0.00  0.00    +0.241 C 
ATOM     13  O   VAL A   5      -2.019  11.481  21.502  0.00  0.00    -0.273 OA
ATOM     14  N   GLN A   6      -2.731  13.604  21.337  0.00  0.00    -0.298 N 
ATOM     15  H   GLN A   6      -3.397  14.267  20.890  0.00  0.00    +0.150 HD
BRANCH  14  16
ATOM     16  CA  GLN A   6      -1.777  14.109  22.315  0.00  0.00    +0.137 C 
BRANCH  16  17
ATOM     17  C   GLN A   6      -2.441  14.264  23.694  0.00  0.00    +0.227 C 
ATOM     18  O   GLN A   6      -1.875  14.883  24.595  0.00  0.00    -0.286 OA
ENDBRANCH  16  17
BRANCH  16  19
ATOM     19  CB  GLN A   6      -1.235  15.466  21.845  0.00  0.00    +0.037 C 
BRANCH  19  20
ATOM     20  CG  GLN A   6      -0.583  15.446  20.469  0.00  0.00    +0.087 C 
BRANCH  20  21
ATOM     21  CD  GLN A   6      -0.257  16.838  19.957  0.00  0.00    +0.219 C 
ATOM     22  OE1 GLN A   6       0.281  17.678  20.682  0.00  0.00    -0.275 OA
ATOM     23  NE2 GLN A   6      -0.576  17.087  18.698  0.00  0.00    -0.329 N 
ATOM     24 HE21 GLN A   6      -0.374  18.020  18.285  0.00  0.00    +0.145 HD
ATOM     25 HE22 GLN A   6      -1.029  16.350  18.121  0.00  0.00    +0.145 HD
ENDBRANCH  20  21
ENDBRANCH  19  20
ENDBRANCH  16  19
ENDBRANCH  14  16
ENDBRANCH  11  12
BRANCH  11  26
ATOM     26  CB  VAL A   5      -3.132  11.355  18.678  0.00  0.00    +0.027 C 
ATOM     27  CG2 VAL A   5      -2.270  12.422  18.030  0.00  0.00    +0.002 C 
ATOM     28  CG1 VAL A   5      -4.159  10.802  17.705  0.00  0.00    +0.002 C 
ENDBRANCH  11  26
ENDBRANCH   9  11
ENDBRANCH   5   7
ENDBRANCH   3   5
BRANCH   1  29
ATOM     29  CA  LYS A   3      -4.611  17.235  18.710  0.00  0.00    +0.149 C 
BRANCH  29  32
ATOM     30  C   GLY A   2      -3.827  15.814  16.904  0.00  0.00    +0.243 C 
ATOM     31  O   GLY A   2      -2.932  15.371  17.616  0.00  0.00    -0.273 OA
ATOM     32  N   LYS A   3      -4.694  16.725  17.342  0.00  0.00    -0.297 N 
ATOM     33  H   LYS A   3      -5.437  17.077  16.705  0.00  0.00    +0.150 HD
BRANCH  30  34
ATOM     34  CA  GLY A   2      -3.984  15.310  15.477  0.00  0.00    +0.176 C 
BRANCH  34  37
ATOM     35  C   VAL A   1      -6.112  14.219  15.811  0.00  0.00    +0.238 C 
ATOM     36  O   VAL A   1      -5.666  13.559  16.737  0.00  0.00    -0.274 OA
ATOM     37  N   GLY A   2      -5.376  15.087  15.130  0.00  0.00    -0.296 N 
ATOM     38  H   GLY A   2      -5.800  15.613  14.340  0.00  0.00    +0.150 HD
BRANCH  35  39
ATOM     39  CA  VAL A   1      -7.561  14.063  15.393  0.00  0.00    +0.145 C 
BRANCH  39  40
ATOM     40  CB  VAL A   1      -7.643  12.928  14.352  0.00  0.00    +0.025 C 
ATOM     41  CG2 VAL A   1      -7.503  11.568  15.038  0.00  0.00    +0.002 C 
ATOM     42  CG1 VAL A   1      -8.918  12.995  13.611  0.00  0.00    +0.002 C 
ENDBRANCH  39  40
BRANCH  39  43
ATOM     43  N   VAL A   1      -8.166  15.315  14.927  0.00  0.00    -0.238 NA
ATOM     44  H   VAL A   1      -8.525  15.373  13.953  0.00  0.00    +0.142 HD
ENDBRANCH  39  43
ENDBRANCH  35  39
ENDBRANCH  34  37
ENDBRANCH  30  34
ENDBRANCH  29  32
BRANCH  29  45
ATOM     45  CB  LYS A   3      -5.513  18.448  18.905  0.00  0.00    +0.029 C 
BRANCH  45  46
ATOM     46  CG  LYS A   3      -5.230  19.612  17.971  0.00  0.00    +0.000 C 
BRANCH  46  47
ATOM     47  CD  LYS A   3      -3.789  20.095  18.073  0.00  0.00    -0.024 C 
BRANCH  47  48
ATOM     48  CE  LYS A   3      -3.536  21.224  17.088  0.00  0.00    -0.086 C 
BRANCH  48  49
ATOM     49  NZ  LYS A   3      -4.023  20.886  15.706  0.00  0.00    +0.380 N 
ATOM     50  HZ1 LYS A   3      -5.046  20.703  15.735  0.00  0.00    -0.089 HD
ATOM     51  HZ2 LYS A   3      -3.528  20.038  15.363  0.00  0.00    -0.089 HD
ATOM     52  HZ3 LYS A   3      -3.830  21.684  15.067  0.00  0.00    -0.089 HD
ENDBRANCH  48  49
ENDBRANCH  47  48
ENDBRANCH  46  47
ENDBRANCH  45  46
ENDBRANCH  29  45
ENDBRANCH   1  29
TORSDOF 22
REMARK  Name = ../refined-set-2016/1g48/1g48_pocket.pdb
REMARK  162 active torsions:
REMARK  status: ('A' for Active; 'I' for Inactive)
REMARK    1  A    between atoms: _1  and  _3
REMARK    2  A    between atoms: _3  and  _4
REMARK    3  A    between atoms: _3  and  _6
REMARK    4  A    between atoms: _6  and  _7
REMARK    5  A    between atoms: _17  and  _19
REMARK    6  A    between atoms: _19  and  _20
REMARK    7  A    between atoms: _19  and  _22
REMARK    8  A    between atoms: _22  and  _23
REMARK    9  A    between atoms: _28  and  _29
REMARK   10  A    between atoms: _31  and  _33
REMARK   11  A    between atoms: _33  and  _34
REMARK   12  A    between atoms: _33  and  _36
REMARK   13  A    between atoms: _36  and  _37
REMARK   14  A    between atoms: _43  and  _45
REMARK   15  A    between atoms: _45  and  _46
REMARK   16  A    between atoms: _45  and  _48
REMARK   17  A    between atoms: _48  and  _49
REMARK   18  A    between atoms: _52  and  _53
REMARK   19  A    between atoms: _58  and  _60
REMARK   20  A    between atoms: _60  and  _61
REMARK   21  A    between atoms: _60  and  _63
REMARK   22  A    between atoms: _63  and  _64
REMARK   23  A    between atoms: _69  and  _71
REMARK   24  A    between atoms: _71  and  _72
REMARK   25  A    between atoms: _75  and  _77
REMARK   26  A    between atoms: _77  and  _78
REMARK   27  A    between atoms: _77  and  _80
REMARK   28  A    between atoms: _80  and  _81
REMARK   29  A    between atoms: _86  and  _88
REMARK   30  A    between atoms: _88  and  _89
REMARK   31  A    between atoms: _88  and  _91
REMARK   32  A    between atoms: _91  and  _92
REMARK   33  A    between atoms: _95  and  _97
REMARK   34  A    between atoms: _97  and  _98
REMARK   35  A    between atoms: _97  and  _100
REMARK   36  A    between atoms: _100  and  _101
REMARK   37  A    between atoms: _101  and  _102
REMARK   38  A    between atoms: _107  and  _109
REMARK   39  A    between atoms: _109  and  _110
REMARK   40  A    between atoms: _109  and  _112
REMARK   41  A    between atoms: _112  and  _113
REMARK   42  A    between atoms: _119  and  _121
REMARK   43  A    between atoms: _132  and  _135
REMARK   44  A    between atoms: _135  and  _136
REMARK   45  A    between atoms: _144  and  _145
REMARK   46  A    between atoms: _153  and  _155
REMARK   47  A    between atoms: _155  and  _156
REMARK   48  A    between atoms: _155  and  _158
REMARK   49  A    between atoms: _158  and  _159
REMARK   50  A    between atoms: _159  and  _160
REMARK   51  A    between atoms: _163  and  _165
REMARK   52  A    between atoms: _165  and  _166
REMARK   53  A    between atoms: _165  and  _168
REMARK   54  A    between atoms: _168  and  _169
REMARK   55  A    between atoms: _174  and  _176
REMARK   56  A    between atoms: _176  and  _177
REMARK   57  A    between atoms: _176  and  _179
REMARK   58  A    between atoms: _179  and  _180
REMARK   59  A    between atoms: _180  and  _181
REMARK   60  A    between atoms: _184  and  _186
REMARK   61  A    between atoms: _186  and  _187
REMARK   62  A    between atoms: _186  and  _189
REMARK   63  A    between atoms: _189  and  _190
REMARK   64  A    between atoms: _193  and  _195
REMARK   65  A    between atoms: _195  and  _196
REMARK   66  A    between atoms: _195  and  _198
REMARK   67  A    between atoms: _198  and  _199
REMARK   68  A    between atoms: _200  and  ZN_447
REMARK   69  A    between atoms: _204  and  _206
REMARK   70  A    between atoms: _206  and  _207
REMARK   71  A    between atoms: _206  and  _209
REMARK   72  A    between atoms: _209  and  _210
REMARK   73  A    between atoms: _213  and  _215
REMARK   74  A    between atoms: _215  and  _216
REMARK   75  A    between atoms: _215  and  _218
REMARK   76  A    between atoms: _221  and  _223
REMARK   77  A    between atoms: _223  and  _224
REMARK   78  A    between atoms: _223  and  _226
REMARK   79  A    between atoms: _226  and  _227
REMARK   80  A    between atoms: _232  and  _234
REMARK   81  A    between atoms: _234  and  _235
REMARK   82  A    between atoms: _234  and  _237
REMARK   83  A    between atoms: _240  and  _242
REMARK   84  A    between atoms: _242  and  _243
REMARK   85  A    between atoms: _245  and  _247
REMARK   86  A    between atoms: _247  and  _248
REMARK   87  A    between atoms: _247  and  _250
REMARK   88  A    between atoms: _250  and  _251
REMARK   89  A    between atoms: _251  and  _252
REMARK   90  A    between atoms: _252  and  _253
REMARK   91  A    between atoms: _253  and  _254
REMARK   92  A    between atoms: _258  and  _260
REMARK   93  A    between atoms: _260  and  _261
REMARK   94  A    between atoms: _264  and  _266
REMARK   95  A    between atoms: _266  and  _267
REMARK   96  A    between atoms: _266  and  _269
REMARK   97  A    between atoms: _272  and  _274
REMARK   98  A    between atoms: _274  and  _275
REMARK   99  A    between atoms: _274  and  _277
REMARK  100  A    between atoms: _277  and  _278
REMARK  101  A    between atoms: _278  and  _279
REMARK  102  A    between atoms: _284  and  _286
REMARK  103  A    between atoms: _286  and  _287
REMARK  104  A    between atoms: _286  and  _289
REMARK  105  A    between atoms: _289  and  _290
REMARK  106  A    between atoms: _293  and  _295
REMARK  107  A    between atoms: _295  and  _296
REMARK  108  A    between atoms: _299  and  _301
REMARK  109  A    between atoms: _301  and  _302
REMARK  110  A    between atoms: _301  and  _304
REMARK  111  A    between atoms: _307  and  _309
REMARK  112  A    between atoms: _309  and  _310
REMARK  113  A    between atoms: _309  and  _312
REMARK  114  A    between atoms: _312  and  _313
REMARK  115  A    between atoms: _316  and  _318
REMARK  116  A    between atoms: _318  and  _319
REMARK  117  A    between atoms: _321  and  _323
REMARK  118  A    between atoms: _323  and  _324
REMARK  119  A    between atoms: _323  and  _326
REMARK  120  A    between atoms: _326  and  _327
REMARK  121  A    between atoms: _329  and  _331
REMARK  122  A    between atoms: _331  and  _332
REMARK  123  A    between atoms: _331  and  _334
REMARK  124  A    between atoms: _334  and  _335
REMARK  125  A    between atoms: _338  and  _340
REMARK  126  A    between atoms: _340  and  _341
REMARK  127  A    between atoms: _340  and  _343
REMARK  128  A    between atoms: _343  and  _344
REMARK  129  A    between atoms: _347  and  _349
REMARK  130  A    between atoms: _349  and  _350
REMARK  131  A    between atoms: _349  and  _352
REMARK  132  A    between atoms: _352  and  _353
REMARK  133  A    between atoms: _357  and  _358
REMARK  134  A    between atoms: _364  and  _365
REMARK  135  A    between atoms: _370  and  _372
REMARK  136  A    between atoms: _372  and  _373
REMARK  137  A    between atoms: _372  and  _375
REMARK  138  A    between atoms: _375  and  _376
REMARK  139  A    between atoms: _379  and  _381
REMARK  140  A    between atoms: _381  and  _382
REMARK  141  A    between atoms: _381  and  _384
REMARK  142  A    between atoms: _384  and  _385
REMARK  143  A    between atoms: _388  and  _390
REMARK  144  A    between atoms: _390  and  _391
REMARK  145  A    between atoms: _390  and  _393
REMARK  146  A    between atoms: _395  and  _397
REMARK  147  A    between atoms: _397  and  _398
REMARK  148  A    between atoms: _397  and  _400
REMARK  149  A    between atoms: _403  and  _405
REMARK  150  A    between atoms: _405  and  _406
REMARK  151  A    between atoms: _405  and  _408
REMARK  152  A    between atoms: _408  and  _409
REMARK  153  A    between atoms: _419  and  _421
REMARK  154  A    between atoms: _421  and  _422
REMARK  155  A    between atoms: _421  and  _424
REMARK  156  A    between atoms: _424  and  _425
REMARK  157  A    between atoms: _430  and  _432
REMARK  158  A    between atoms: _432  and  _433
REMARK  159  A    between atoms: _432  and  _435
REMARK  160  A    between atoms: _435  and  _436
REMARK  161  A    between atoms: _436  and  _437
REMARK  162  A    between atoms: _437  and  _438
REMARK                            x       y       z     vdW  Elec       q    Type
REMARK                         _______ _______ _______ _____ _____    ______ ____
ROOT
ATOM      1  CA  VAL A   3     -12.007   2.728  20.118  0.00  0.00    +0.149 C 
ENDROOT
BRANCH   1   3
ATOM      2  C   ALA A   2     -12.343   4.990  20.870  0.00  0.00    +0.241 C 
ATOM      3  N   VAL A   3     -11.923   3.764  21.138  0.00  0.00    -0.297 N 
ATOM      4  H   VAL A   3     -11.533   3.541  22.076  0.00  0.00    +0.150 HD
ATOM      5  O   ALA A   2     -12.700   5.340  19.741  0.00  0.00    -0.273 OA
BRANCH   2   6
ATOM      6  CA  ALA A   2     -12.257   6.006  21.991  0.00  0.00    +0.149 C 
ATOM      7  CB  ALA A   2     -13.640   6.539  22.313  0.00  0.00    +0.031 C 
BRANCH   6  10
ATOM      8  C   LEU A   1     -10.413   7.596  22.127  0.00  0.00    +0.238 C 
ATOM      9  O   LEU A   1     -10.139   7.279  23.278  0.00  0.00    -0.274 OA
ATOM     10  N   ALA A   2     -11.407   7.054  21.442  0.00  0.00    -0.297 N 
ATOM     11  H   ALA A   2     -11.588   7.389  20.474  0.00  0.00    +0.150 HD
BRANCH   8  12
ATOM     12  CA  LEU A   1      -9.590   8.617  21.372  0.00  0.00    +0.145 C 
BRANCH  12  13
ATOM     13  N   LEU A   1      -8.919   9.595  22.219  0.00  0.00    -0.238 NA
ATOM     14  H   LEU A   1      -8.276   9.273  22.970  0.00  0.00    +0.142 HD
ENDBRANCH  12  13
BRANCH  12  15
ATOM     15  CB  LEU A   1      -8.588   7.832  20.524  0.00  0.00    +0.026 C 
BRANCH  15  16
ATOM     16  CG  LEU A   1      -7.657   8.514  19.526  0.00  0.00    +0.002 C 
ATOM     17  CD2 LEU A   1      -6.994   7.420  18.717  0.00  0.00    +0.000 C 
ATOM     18  CD1 LEU A   1      -8.397   9.465  18.601  0.00  0.00    +0.000 C 
ENDBRANCH  15  16
ENDBRANCH  12  15
ENDBRANCH   8  12
ENDBRANCH   6  10
ENDBRANCH   2   6
ENDBRANCH   1   3
BRANCH   1  19
ATOM     19  C   VAL A   3     -12.968   1.656  20.590  0.00  0.00    +0.241 C 
ATOM     20  O   VAL A   3     -12.875   1.171  21.728  0.00  0.00    -0.273 OA
ATOM     21  N   LEU A   4     -13.932   1.354  19.730  0.00  0.00    -0.297 N 
ATOM     22  H   LEU A   4     -13.969   1.861  18.823  0.00  0.00    +0.150 HD
BRANCH  21  23
ATOM     23  CA  LEU A   4     -14.936   0.344  20.007  0.00  0.00    +0.149 C 
BRANCH  23  24
ATOM     24  C   LEU A   4     -14.391  -0.928  19.393  0.00  0.00    +0.241 C 
ATOM     25  N   GLY A   5     -14.160  -1.930  20.229  0.00  0.00    -0.296 N 
ATOM     26  H   GLY A   5     -14.373  -1.806  21.239  0.00  0.00    +0.150 HD
ATOM     27  O   LEU A   4     -14.121  -0.969  18.190  0.00  0.00    -0.273 OA
BRANCH  25  28
ATOM     28  CA  GLY A   5     -13.619  -3.191  19.773  0.00  0.00    +0.163 C 
BRANCH  28  29
ATOM     29  C   GLY A   5     -14.679  -4.276  19.731  0.00  0.00    +0.229 C 
ATOM     30  O   GLY A   5     -15.406  -4.512  20.706  0.00  0.00    -0.286 OA
ENDBRANCH  28  29
ENDBRANCH  25  28
ENDBRANCH  23  24
BRANCH  23  31
ATOM     31  CB  LEU A   4     -16.244   0.730  19.331  0.00  0.00    +0.029 C 
BRANCH  31  32
ATOM     32  CG  LEU A   4     -17.472   0.109  19.956  0.00  0.00    +0.002 C 
ATOM     33  CD2 LEU A   4     -17.659   0.784  21.291  0.00  0.00    +0.000 C 
ATOM     34  CD1 LEU A   4     -18.685   0.319  19.069  0.00  0.00    +0.000 C 
ENDBRANCH  31  32
ENDBRANCH  23  31
ENDBRANCH  21  23
ENDBRANCH   1  19
BRANCH   1  35
ATOM     35  CB  VAL A   3     -10.641   2.086  19.794  0.00  0.00    +0.027 C 
ATOM     36  CG2 VAL A   3      -9.657   3.148  19.408  0.00  0.00    +0.002 C 
ATOM     37  CG1 VAL A   3     -10.794   1.077  18.650  0.00  0.00    +0.002 C 
ENDBRANCH   1  35
TORSDOF 15
REMARK  Name = ../refined-set-2016/1g48/1g48_pocket.pdb
REMARK  162 active torsions:
REMARK  status: ('A' for Active; 'I' for Inactive)
REMARK    1  A    between atoms: _1  and  _3
REMARK    2  A    between atoms: _3  and  _4
REMARK    3  A    between atoms: _3  and  _6
REMARK    4  A    between atoms: _6  and  _7
REMARK    5  A    between atoms: _17  and  _19
REMARK    6  A    between atoms: _19  and  _20
REMARK    7  A    between atoms: _19  and  _22
REMARK    8  A    between atoms: _22  and  _23
REMARK    9  A    between atoms: _28  and  _29
REMARK   10  A    between atoms: _31  and  _33
REMARK   11  A    between atoms: _33  and  _34
REMARK   12  A    between atoms: _33  and  _36
REMARK   13  A    between atoms: _36  and  _37
REMARK   14  A    between atoms: _43  and  _45
REMARK   15  A    between atoms: _45  and  _46
REMARK   16  A    between atoms: _45  and  _48
REMARK   17  A    between atoms: _48  and  _49
REMARK   18  A    between atoms: _52  and  _53
REMARK   19  A    between atoms: _58  and  _60
REMARK   20  A    between atoms: _60  and  _61
REMARK   21  A    between atoms: _60  and  _63
REMARK   22  A    between atoms: _63  and  _64
REMARK   23  A    between atoms: _69  and  _71
REMARK   24  A    between atoms: _71  and  _72
REMARK   25  A    between atoms: _75  and  _77
REMARK   26  A    between atoms: _77  and  _78
REMARK   27  A    between atoms: _77  and  _80
REMARK   28  A    between atoms: _80  and  _81
REMARK   29  A    between atoms: _86  and  _88
REMARK   30  A    between atoms: _88  and  _89
REMARK   31  A    between atoms: _88  and  _91
REMARK   32  A    between atoms: _91  and  _92
REMARK   33  A    between atoms: _95  and  _97
REMARK   34  A    between atoms: _97  and  _98
REMARK   35  A    between atoms: _97  and  _100
REMARK   36  A    between atoms: _100  and  _101
REMARK   37  A    between atoms: _101  and  _102
REMARK   38  A    between atoms: _107  and  _109
REMARK   39  A    between atoms: _109  and  _110
REMARK   40  A    between atoms: _109  and  _112
REMARK   41  A    between atoms: _112  and  _113
REMARK   42  A    between atoms: _119  and  _121
REMARK   43  A    between atoms: _132  and  _135
REMARK   44  A    between atoms: _135  and  _136
REMARK   45  A    between atoms: _144  and  _145
REMARK   46  A    between atoms: _153  and  _155
REMARK   47  A    between atoms: _155  and  _156
REMARK   48  A    between atoms: _155  and  _158
REMARK   49  A    between atoms: _158  and  _159
REMARK   50  A    between atoms: _159  and  _160
REMARK   51  A    between atoms: _163  and  _165
REMARK   52  A    between atoms: _165  and  _166
REMARK   53  A    between atoms: _165  and  _168
REMARK   54  A    between atoms: _168  and  _169
REMARK   55  A    between atoms: _174  and  _176
REMARK   56  A    between atoms: _176  and  _177
REMARK   57  A    between atoms: _176  and  _179
REMARK   58  A    between atoms: _179  and  _180
REMARK   59  A    between atoms: _180  and  _181
REMARK   60  A    between atoms: _184  and  _186
REMARK   61  A    between atoms: _186  and  _187
REMARK   62  A    between atoms: _186  and  _189
REMARK   63  A    between atoms: _189  and  _190
REMARK   64  A    between atoms: _193  and  _195
REMARK   65  A    between atoms: _195  and  _196
REMARK   66  A    between atoms: _195  and  _198
REMARK   67  A    between atoms: _198  and  _199
REMARK   68  A    between atoms: _200  and  ZN_447
REMARK   69  A    between atoms: _204  and  _206
REMARK   70  A    between atoms: _206  and  _207
REMARK   71  A    between atoms: _206  and  _209
REMARK   72  A    between atoms: _209  and  _210
REMARK   73  A    between atoms: _213  and  _215
REMARK   74  A    between atoms: _215  and  _216
REMARK   75  A    between atoms: _215  and  _218
REMARK   76  A    between atoms: _221  and  _223
REMARK   77  A    between atoms: _223  and  _224
REMARK   78  A    between atoms: _223  and  _226
REMARK   79  A    between atoms: _226  and  _227
REMARK   80  A    between atoms: _232  and  _234
REMARK   81  A    between atoms: _234  and  _235
REMARK   82  A    between atoms: _234  and  _237
REMARK   83  A    between atoms: _240  and  _242
REMARK   84  A    between atoms: _242  and  _243
REMARK   85  A    between atoms: _245  and  _247
REMARK   86  A    between atoms: _247  and  _248
REMARK   87  A    between atoms: _247  and  _250
REMARK   88  A    between atoms: _250  and  _251
REMARK   89  A    between atoms: _251  and  _252
REMARK   90  A    between atoms: _252  and  _253
REMARK   91  A    between atoms: _253  and  _254
REMARK   92  A    between atoms: _258  and  _260
REMARK   93  A    between atoms: _260  and  _261
REMARK   94  A    between atoms: _264  and  _266
REMARK   95  A    between atoms: _266  and  _267
REMARK   96  A    between atoms: _266  and  _269
REMARK   97  A    between atoms: _272  and  _274
REMARK   98  A    between atoms: _274  and  _275
REMARK   99  A    between atoms: _274  and  _277
REMARK  100  A    between atoms: _277  and  _278
REMARK  101  A    between atoms: _278  and  _279
REMARK  102  A    between atoms: _284  and  _286
REMARK  103  A    between atoms: _286  and  _287
REMARK  104  A    between atoms: _286  and  _289
REMARK  105  A    between atoms: _289  and  _290
REMARK  106  A    between atoms: _293  and  _295
REMARK  107  A    between atoms: _295  and  _296
REMARK  108  A    between atoms: _299  and  _301
REMARK  109  A    between atoms: _301  and  _302
REMARK  110  A    between atoms: _301  and  _304
REMARK  111  A    between atoms: _307  and  _309
REMARK  112  A    between atoms: _309  and  _310
REMARK  113  A    between atoms: _309  and  _312
REMARK  114  A    between atoms: _312  and  _313
REMARK  115  A    between atoms: _316  and  _318
REMARK  116  A    between atoms: _318  and  _319
REMARK  117  A    between atoms: _321  and  _323
REMARK  118  A    between atoms: _323  and  _324
REMARK  119  A    between atoms: _323  and  _326
REMARK  120  A    between atoms: _326  and  _327
REMARK  121  A    between atoms: _329  and  _331
REMARK  122  A    between atoms: _331  and  _332
REMARK  123  A    between atoms: _331  and  _334
REMARK  124  A    between atoms: _334  and  _335
REMARK  125  A    between atoms: _338  and  _340
REMARK  126  A    between atoms: _340  and  _341
REMARK  127  A    between atoms: _340  and  _343
REMARK  128  A    between atoms: _343  and  _344
REMARK  129  A    between atoms: _347  and  _349
REMARK  130  A    between atoms: _349  and  _350
REMARK  131  A    between atoms: _349  and  _352
REMARK  132  A    between atoms: _352  and  _353
REMARK  133  A    between atoms: _357  and  _358
REMARK  134  A    between atoms: _364  and  _365
REMARK  135  A    between atoms: _370  and  _372
REMARK  136  A    between atoms: _372  and  _373
REMARK  137  A    between atoms: _372  and  _375
REMARK  138  A    between atoms: _375  and  _376
REMARK  139  A    between atoms: _379  and  _381
REMARK  140  A    between atoms: _381  and  _382
REMARK  141  A    between atoms: _381  and  _384
REMARK  142  A    between atoms: _384  and  _385
REMARK  143  A    between atoms: _388  and  _390
REMARK  144  A    between atoms: _390  and  _391
REMARK  145  A    between atoms: _390  and  _393
REMARK  146  A    between atoms: _395  and  _397
REMARK  147  A    between atoms: _397  and  _398
REMARK  148  A    between atoms: _397  and  _400
REMARK  149  A    between atoms: _403  and  _405
REMARK  150  A    between atoms: _405  and  _406
REMARK  151  A    between atoms: _405  and  _408
REMARK  152  A    between atoms: _408  and  _409
REMARK  153  A    between atoms: _419  and  _421
REMARK  154  A    between atoms: _421  and  _422
REMARK  155  A    between atoms: _421  and  _424
REMARK  156  A    between atoms: _424  and  _425
REMARK  157  A    between atoms: _430  and  _432
REMARK  158  A    between atoms: _432  and  _433
REMARK  159  A    between atoms: _432  and  _435
REMARK  160  A    between atoms: _435  and  _436
REMARK  161  A    between atoms: _436  and  _437
REMARK  162  A    between atoms: _437  and  _438
REMARK                            x       y       z     vdW  Elec       q    Type
REMARK                         _______ _______ _______ _____ _____    ______ ____
ROOT
ATOM      1  C   THR A   4       0.992   1.409  16.530  0.00  0.00    +0.246 C 
ATOM      2  O   THR A   4       0.503   2.313  17.227  0.00  0.00    -0.273 OA
ATOM      3  N   PRO A   5       2.253   1.480  16.060  0.00  0.00    -0.272 N 
ATOM      4  CA  PRO A   5       3.061   2.695  16.244  0.00  0.00    +0.152 C 
ATOM      5  CB  PRO A   5       4.251   2.434  15.326  0.00  0.00    +0.031 C 
ATOM      6  CG  PRO A   5       4.471   0.983  15.500  0.00  0.00    +0.024 C 
ATOM      7  CD  PRO A   5       3.055   0.418  15.424  0.00  0.00    +0.094 C 
ENDROOT
BRANCH   4   8
ATOM      8  C   PRO A   5       2.218   3.848  15.717  0.00  0.00    +0.244 C 
ATOM      9  N   PRO A   6       2.318   5.050  16.309  0.00  0.00    -0.272 N 
ATOM     10  CA  PRO A   6       3.118   5.550  17.430  0.00  0.00    +0.152 C 
ATOM     11  CB  PRO A   6       2.773   7.046  17.466  0.00  0.00    +0.031 C 
ATOM     12  CG  PRO A   6       2.172   7.337  16.184  0.00  0.00    +0.024 C 
ATOM     13  CD  PRO A   6       1.421   6.106  15.818  0.00  0.00    +0.094 C 
ATOM     14  O   PRO A   5       1.499   3.668  14.733  0.00  0.00    -0.273 OA
BRANCH  10  15
ATOM     15  C   PRO A   6       2.835   4.917  18.806  0.00  0.00    +0.241 C 
ATOM     16  O   PRO A   6       3.536   5.226  19.771  0.00  0.00    -0.273 OA
ATOM     17  N   LEU A   7       1.789   4.092  18.910  0.00  0.00    -0.297 N 
ATOM     18  H   LEU A   7       1.202   3.909  18.071  0.00  0.00    +0.150 HD
BRANCH  17  19
ATOM     19  CA  LEU A   7       1.448   3.438  20.179  0.00  0.00    +0.149 C 
BRANCH  19  20
ATOM     20  C   LEU A   7       1.111   4.444  21.296  0.00  0.00    +0.241 C 
ATOM     21  O   LEU A   7       1.279   4.152  22.486  0.00  0.00    -0.273 OA
ATOM     22  N   LEU A   8       0.591   5.606  20.905  0.00  0.00    -0.298 N 
ATOM     23  H   LEU A   8       0.426   5.760  19.890  0.00  0.00    +0.150 HD
BRANCH  22  24
ATOM     24  CA  LEU A   8       0.242   6.676  21.841  0.00  0.00    +0.137 C 
BRANCH  24  25
ATOM     25  C   LEU A   8      -0.799   6.232  22.890  0.00  0.00    +0.227 C 
ATOM     26  O   LEU A   8      -1.729   5.487  22.588  0.00  0.00    -0.286 OA
ENDBRANCH  24  25
BRANCH  24  27
ATOM     27  CB  LEU A   8      -0.216   7.916  21.054  0.00  0.00    +0.028 C 
BRANCH  27  28
ATOM     28  CG  LEU A   8       0.845   8.459  20.061  0.00  0.00    +0.002 C 
ATOM     29  CD2 LEU A   8       2.087   8.966  20.806  0.00  0.00    +0.000 C 
ATOM     30  CD1 LEU A   8       0.272   9.590  19.193  0.00  0.00    +0.000 C 
ENDBRANCH  27  28
ENDBRANCH  24  27
ENDBRANCH  22  24
ENDBRANCH  19  20
BRANCH  19  31
ATOM     31  CB  LEU A   7       2.611   2.545  20.610  0.00  0.00    +0.029 C 
BRANCH  31  32
ATOM     32  CG  LEU A   7       2.969   1.389  19.672  0.00  0.00    +0.002 C 
ATOM     33  CD2 LEU A   7       4.331   0.825  20.048  0.00  0.00    +0.000 C 
ATOM     34  CD1 LEU A   7       1.913   0.310  19.752  0.00  0.00    +0.000 C 
ENDBRANCH  31  32
ENDBRANCH  19  31
ENDBRANCH  17  19
ENDBRANCH  10  15
ENDBRANCH   4   8
BRANCH   1  35
ATOM     35  CA  THR A   4       0.209   0.116  16.281  0.00  0.00    +0.176 C 
BRANCH  35  38
ATOM     36  C   THR A   3      -1.003  -1.065  18.053  0.00  0.00    +0.243 C 
ATOM     37  O   THR A   3      -0.408  -2.126  17.834  0.00  0.00    -0.273 OA
ATOM     38  N   THR A   4      -0.811   0.040  17.330  0.00  0.00    -0.295 N 
ATOM     39  H   THR A   4      -1.404   0.874  17.517  0.00  0.00    +0.150 HD
BRANCH  36  40
ATOM     40  CA  THR A   3      -2.059  -0.988  19.151  0.00  0.00    +0.176 C 
BRANCH  40  43
ATOM     41  C   LEU A   2      -2.326   1.278  19.939  0.00  0.00    +0.241 C 
ATOM     42  O   LEU A   2      -1.313   1.165  20.652  0.00  0.00    -0.273 OA
ATOM     43  N   THR A   3      -2.767   0.285  19.173  0.00  0.00    -0.295 N 
ATOM     44  H   THR A   3      -3.618   0.417  18.589  0.00  0.00    +0.150 HD
BRANCH  41  45
ATOM     45  CA  LEU A   2      -3.102   2.602  19.928  0.00  0.00    +0.149 C 
BRANCH  45  48
ATOM     46  C   SER A   1      -3.529   2.451  22.327  0.00  0.00    +0.241 C 
ATOM     47  O   SER A   1      -4.343   1.535  22.179  0.00  0.00    -0.274 OA
ATOM     48  N   LEU A   2      -2.919   3.061  21.308  0.00  0.00    -0.297 N 
ATOM     49  H   LEU A   2      -2.303   3.877  21.497  0.00  0.00    +0.150 HD
BRANCH  46  50
ATOM     50  CA  SER A   1      -3.161   2.948  23.725  0.00  0.00    +0.174 C 
BRANCH  50  51
ATOM     51  N   SER A   1      -3.914   2.267  24.768  0.00  0.00    -0.236 NA
ATOM     52  H   SER A   1      -4.135   1.257  24.659  0.00  0.00    +0.142 HD
ENDBRANCH  50  51
BRANCH  50  53
ATOM     53  CB  SER A   1      -1.677   2.620  23.939  0.00  0.00    +0.163 C 
BRANCH  53  54
ATOM     54  OG  SER A   1      -1.416   1.251  23.620  0.00  0.00    -0.380 OA
ATOM     55  H   SER A   1      -1.650   1.084  22.673  0.00  0.00    +0.211 HD
ENDBRANCH  53  54
ENDBRANCH  50  53
ENDBRANCH  46  50
ENDBRANCH  45  48
BRANCH  45  56
ATOM     56  CB  LEU A   2      -2.395   3.545  18.950  0.00  0.00    +0.029 C 
BRANCH  56  57
ATOM     57  CG  LEU A   2      -2.753   5.026  18.951  0.00  0.00    +0.002 C 
ATOM     58  CD2 LEU A   2      -4.227   5.201  18.657  0.00  0.00    +0.000 C 
ATOM     59  CD1 LEU A   2      -1.906   5.713  17.900  0.00  0.00    +0.000 C 
ENDBRANCH  56  57
ENDBRANCH  45  56
ENDBRANCH  41  45
ENDBRANCH  40  43
BRANCH  40  60
ATOM     60  CB  THR A   3      -3.025  -2.169  19.030  0.00  0.00    +0.137 C 
ATOM     61  CG2 THR A   3      -4.042  -2.148  20.176  0.00  0.00    +0.034 C 
BRANCH  60  62
ATOM     62  OG1 THR A   3      -3.712  -2.093  17.778  0.00  0.00    -0.382 OA
ATOM     63  HG1 THR A   3      -4.337  -2.857  17.699  0.00  0.00    +0.210 HD
ENDBRANCH  60  62
ENDBRANCH  40  60
ENDBRANCH  36  40
ENDBRANCH  35  38
BRANCH  35  64
ATOM     64  CB  THR A   4      -0.409   0.158  14.839  0.00  0.00    +0.137 C 
ATOM     65  CG2 THR A   4      -1.239  -1.072  14.564  0.00  0.00    +0.034 C 
BRANCH  64  66
ATOM     66  OG1 THR A   4      -1.252   1.302  14.709  0.00  0.00    -0.382 OA
ATOM     67  HG1 THR A   4      -0.719   2.122  14.862  0.00  0.00    +0.210 HD
ENDBRANCH  64  66
ENDBRANCH  35  64
ENDBRANCH   1  35
TORSDOF 26
REMARK  Name = ../refined-set-2016/1g48/1g48_pocket.pdb
REMARK  162 active torsions:
REMARK  status: ('A' for Active; 'I' for Inactive)
REMARK    1  A    between atoms: _1  and  _3
REMARK    2  A    between atoms: _3  and  _4
REMARK    3  A    between atoms: _3  and  _6
REMARK    4  A    between atoms: _6  and  _7
REMARK    5  A    between atoms: _17  and  _19
REMARK    6  A    between atoms: _19  and  _20
REMARK    7  A    between atoms: _19  and  _22
REMARK    8  A    between atoms: _22  and  _23
REMARK    9  A    between atoms: _28  and  _29
REMARK   10  A    between atoms: _31  and  _33
REMARK   11  A    between atoms: _33  and  _34
REMARK   12  A    between atoms: _33  and  _36
REMARK   13  A    between atoms: _36  and  _37
REMARK   14  A    between atoms: _43  and  _45
REMARK   15  A    between atoms: _45  and  _46
REMARK   16  A    between atoms: _45  and  _48
REMARK   17  A    between atoms: _48  and  _49
REMARK   18  A    between atoms: _52  and  _53
REMARK   19  A    between atoms: _58  and  _60
REMARK   20  A    between atoms: _60  and  _61
REMARK   21  A    between atoms: _60  and  _63
REMARK   22  A    between atoms: _63  and  _64
REMARK   23  A    between atoms: _69  and  _71
REMARK   24  A    between atoms: _71  and  _72
REMARK   25  A    between atoms: _75  and  _77
REMARK   26  A    between atoms: _77  and  _78
REMARK   27  A    between atoms: _77  and  _80
REMARK   28  A    between atoms: _80  and  _81
REMARK   29  A    between atoms: _86  and  _88
REMARK   30  A    between atoms: _88  and  _89
REMARK   31  A    between atoms: _88  and  _91
REMARK   32  A    between atoms: _91  and  _92
REMARK   33  A    between atoms: _95  and  _97
REMARK   34  A    between atoms: _97  and  _98
REMARK   35  A    between atoms: _97  and  _100
REMARK   36  A    between atoms: _100  and  _101
REMARK   37  A    between atoms: _101  and  _102
REMARK   38  A    between atoms: _107  and  _109
REMARK   39  A    between atoms: _109  and  _110
REMARK   40  A    between atoms: _109  and  _112
REMARK   41  A    between atoms: _112  and  _113
REMARK   42  A    between atoms: _119  and  _121
REMARK   43  A    between atoms: _132  and  _135
REMARK   44  A    between atoms: _135  and  _136
REMARK   45  A    between atoms: _144  and  _145
REMARK   46  A    between atoms: _153  and  _155
REMARK   47  A    between atoms: _155  and  _156
REMARK   48  A    between atoms: _155  and  _158
REMARK   49  A    between atoms: _158  and  _159
REMARK   50  A    between atoms: _159  and  _160
REMARK   51  A    between atoms: _163  and  _165
REMARK   52  A    between atoms: _165  and  _166
REMARK   53  A    between atoms: _165  and  _168
REMARK   54  A    between atoms: _168  and  _169
REMARK   55  A    between atoms: _174  and  _176
REMARK   56  A    between atoms: _176  and  _177
REMARK   57  A    between atoms: _176  and  _179
REMARK   58  A    between atoms: _179  and  _180
REMARK   59  A    between atoms: _180  and  _181
REMARK   60  A    between atoms: _184  and  _186
REMARK   61  A    between atoms: _186  and  _187
REMARK   62  A    between atoms: _186  and  _189
REMARK   63  A    between atoms: _189  and  _190
REMARK   64  A    between atoms: _193  and  _195
REMARK   65  A    between atoms: _195  and  _196
REMARK   66  A    between atoms: _195  and  _198
REMARK   67  A    between atoms: _198  and  _199
REMARK   68  A    between atoms: _200  and  ZN_447
REMARK   69  A    between atoms: _204  and  _206
REMARK   70  A    between atoms: _206  and  _207
REMARK   71  A    between atoms: _206  and  _209
REMARK   72  A    between atoms: _209  and  _210
REMARK   73  A    between atoms: _213  and  _215
REMARK   74  A    between atoms: _215  and  _216
REMARK   75  A    between atoms: _215  and  _218
REMARK   76  A    between atoms: _221  and  _223
REMARK   77  A    between atoms: _223  and  _224
REMARK   78  A    between atoms: _223  and  _226
REMARK   79  A    between atoms: _226  and  _227
REMARK   80  A    between atoms: _232  and  _234
REMARK   81  A    between atoms: _234  and  _235
REMARK   82  A    between atoms: _234  and  _237
REMARK   83  A    between atoms: _240  and  _242
REMARK   84  A    between atoms: _242  and  _243
REMARK   85  A    between atoms: _245  and  _247
REMARK   86  A    between atoms: _247  and  _248
REMARK   87  A    between atoms: _247  and  _250
REMARK   88  A    between atoms: _250  and  _251
REMARK   89  A    between atoms: _251  and  _252
REMARK   90  A    between atoms: _252  and  _253
REMARK   91  A    between atoms: _253  and  _254
REMARK   92  A    between atoms: _258  and  _260
REMARK   93  A    between atoms: _260  and  _261
REMARK   94  A    between atoms: _264  and  _266
REMARK   95  A    between atoms: _266  and  _267
REMARK   96  A    between atoms: _266  and  _269
REMARK   97  A    between atoms: _272  and  _274
REMARK   98  A    between atoms: _274  and  _275
REMARK   99  A    between atoms: _274  and  _277
REMARK  100  A    between atoms: _277  and  _278
REMARK  101  A    between atoms: _278  and  _279
REMARK  102  A    between atoms: _284  and  _286
REMARK  103  A    between atoms: _286  and  _287
REMARK  104  A    between atoms: _286  and  _289
REMARK  105  A    between atoms: _289  and  _290
REMARK  106  A    between atoms: _293  and  _295
REMARK  107  A    between atoms: _295  and  _296
REMARK  108  A    between atoms: _299  and  _301
REMARK  109  A    between atoms: _301  and  _302
REMARK  110  A    between atoms: _301  and  _304
REMARK  111  A    between atoms: _307  and  _309
REMARK  112  A    between atoms: _309  and  _310
REMARK  113  A    between atoms: _309  and  _312
REMARK  114  A    between atoms: _312  and  _313
REMARK  115  A    between atoms: _316  and  _318
REMARK  116  A    between atoms: _318  and  _319
REMARK  117  A    between atoms: _321  and  _323
REMARK  118  A    between atoms: _323  and  _324
REMARK  119  A    between atoms: _323  and  _326
REMARK  120  A    between atoms: _326  and  _327
REMARK  121  A    between atoms: _329  and  _331
REMARK  122  A    between atoms: _331  and  _332
REMARK  123  A    between atoms: _331  and  _334
REMARK  124  A    between atoms: _334  and  _335
REMARK  125  A    between atoms: _338  and  _340
REMARK  126  A    between atoms: _340  and  _341
REMARK  127  A    between atoms: _340  and  _343
REMARK  128  A    between atoms: _343  and  _344
REMARK  129  A    between atoms: _347  and  _349
REMARK  130  A    between atoms: _349  and  _350
REMARK  131  A    between atoms: _349  and  _352
REMARK  132  A    between atoms: _352  and  _353
REMARK  133  A    between atoms: _357  and  _358
REMARK  134  A    between atoms: _364  and  _365
REMARK  135  A    between atoms: _370  and  _372
REMARK  136  A    between atoms: _372  and  _373
REMARK  137  A    between atoms: _372  and  _375
REMARK  138  A    between atoms: _375  and  _376
REMARK  139  A    between atoms: _379  and  _381
REMARK  140  A    between atoms: _381  and  _382
REMARK  141  A    between atoms: _381  and  _384
REMARK  142  A    between atoms: _384  and  _385
REMARK  143  A    between atoms: _388  and  _390
REMARK  144  A    between atoms: _390  and  _391
REMARK  145  A    between atoms: _390  and  _393
REMARK  146  A    between atoms: _395  and  _397
REMARK  147  A    between atoms: _397  and  _398
REMARK  148  A    between atoms: _397  and  _400
REMARK  149  A    between atoms: _403  and  _405
REMARK  150  A    between atoms: _405  and  _406
REMARK  151  A    between atoms: _405  and  _408
REMARK  152  A    between atoms: _408  and  _409
REMARK  153  A    between atoms: _419  and  _421
REMARK  154  A    between atoms: _421  and  _422
REMARK  155  A    between atoms: _421  and  _424
REMARK  156  A    between atoms: _424  and  _425
REMARK  157  A    between atoms: _430  and  _432
REMARK  158  A    between atoms: _432  and  _433
REMARK  159  A    between atoms: _432  and  _435
REMARK  160  A    between atoms: _435  and  _436
REMARK  161  A    between atoms: _436  and  _437
REMARK  162  A    between atoms: _437  and  _438
REMARK                            x       y       z     vdW  Elec       q    Type
REMARK                         _______ _______ _______ _____ _____    ______ ____
ROOT
ATOM      1  C   CYS A   1      -5.949   7.642  24.117  0.00  0.00    +0.239 C 
ATOM      2  N   VAL A   2      -6.053   6.343  24.369  0.00  0.00    -0.298 N 
ATOM      3  H   VAL A   2      -5.238   5.829  24.760  0.00  0.00    +0.150 HD
ATOM      4  O   CYS A   1      -6.905   8.336  23.781  0.00  0.00    -0.274 OA
ENDROOT
BRANCH   1   5
ATOM      5  CA  CYS A   1      -4.590   8.283  24.345  0.00  0.00    +0.156 C 
BRANCH   5   6
ATOM      6  N   CYS A   1      -3.512   7.311  24.364  0.00  0.00    -0.237 NA
ATOM      7  H   CYS A   1      -3.427   6.628  23.585  0.00  0.00    +0.142 HD
ENDBRANCH   5   6
BRANCH   5   8
ATOM      8  CB  CYS A   1      -4.319   9.250  23.200  0.00  0.00    +0.095 C 
ATOM      9  SG  CYS A   1      -4.223   8.361  21.618  0.00  0.00    -0.080 S 
ENDBRANCH   5   8
ENDBRANCH   1   5
BRANCH   2  10
ATOM     10  CA  VAL A   2      -7.290   5.629  24.106  0.00  0.00    +0.137 C 
BRANCH  10  11
ATOM     11  CB  VAL A   2      -7.036   4.442  23.112  0.00  0.00    +0.026 C 
ATOM     12  CG2 VAL A   2      -8.352   3.753  22.741  0.00  0.00    +0.002 C 
ATOM     13  CG1 VAL A   2      -6.310   4.929  21.866  0.00  0.00    +0.002 C 
ENDBRANCH  10  11
BRANCH  10  14
ATOM     14  C   VAL A   2      -8.098   5.058  25.263  0.00  0.00    +0.227 C 
ATOM     15  O   VAL A   2      -7.562   4.426  26.175  0.00  0.00    -0.286 OA
ENDBRANCH  10  14
ENDBRANCH   2  10
TORSDOF 6
REMARK  Name = ../refined-set-2016/1g48/1g48_pocket.pdb
REMARK  162 active torsions:
REMARK  status: ('A' for Active; 'I' for Inactive)
REMARK    1  A    between atoms: _1  and  _3
REMARK    2  A    between atoms: _3  and  _4
REMARK    3  A    between atoms: _3  and  _6
REMARK    4  A    between atoms: _6  and  _7
REMARK    5  A    between atoms: _17  and  _19
REMARK    6  A    between atoms: _19  and  _20
REMARK    7  A    between atoms: _19  and  _22
REMARK    8  A    between atoms: _22  and  _23
REMARK    9  A    between atoms: _28  and  _29
REMARK   10  A    between atoms: _31  and  _33
REMARK   11  A    between atoms: _33  and  _34
REMARK   12  A    between atoms: _33  and  _36
REMARK   13  A    between atoms: _36  and  _37
REMARK   14  A    between atoms: _43  and  _45
REMARK   15  A    between atoms: _45  and  _46
REMARK   16  A    between atoms: _45  and  _48
REMARK   17  A    between atoms: _48  and  _49
REMARK   18  A    between atoms: _52  and  _53
REMARK   19  A    between atoms: _58  and  _60
REMARK   20  A    between atoms: _60  and  _61
REMARK   21  A    between atoms: _60  and  _63
REMARK   22  A    between atoms: _63  and  _64
REMARK   23  A    between atoms: _69  and  _71
REMARK   24  A    between atoms: _71  and  _72
REMARK   25  A    between atoms: _75  and  _77
REMARK   26  A    between atoms: _77  and  _78
REMARK   27  A    between atoms: _77  and  _80
REMARK   28  A    between atoms: _80  and  _81
REMARK   29  A    between atoms: _86  and  _88
REMARK   30  A    between atoms: _88  and  _89
REMARK   31  A    between atoms: _88  and  _91
REMARK   32  A    between atoms: _91  and  _92
REMARK   33  A    between atoms: _95  and  _97
REMARK   34  A    between atoms: _97  and  _98
REMARK   35  A    between atoms: _97  and  _100
REMARK   36  A    between atoms: _100  and  _101
REMARK   37  A    between atoms: _101  and  _102
REMARK   38  A    between atoms: _107  and  _109
REMARK   39  A    between atoms: _109  and  _110
REMARK   40  A    between atoms: _109  and  _112
REMARK   41  A    between atoms: _112  and  _113
REMARK   42  A    between atoms: _119  and  _121
REMARK   43  A    between atoms: _132  and  _135
REMARK   44  A    between atoms: _135  and  _136
REMARK   45  A    between atoms: _144  and  _145
REMARK   46  A    between atoms: _153  and  _155
REMARK   47  A    between atoms: _155  and  _156
REMARK   48  A    between atoms: _155  and  _158
REMARK   49  A    between atoms: _158  and  _159
REMARK   50  A    between atoms: _159  and  _160
REMARK   51  A    between atoms: _163  and  _165
REMARK   52  A    between atoms: _165  and  _166
REMARK   53  A    between atoms: _165  and  _168
REMARK   54  A    between atoms: _168  and  _169
REMARK   55  A    between atoms: _174  and  _176
REMARK   56  A    between atoms: _176  and  _177
REMARK   57  A    between atoms: _176  and  _179
REMARK   58  A    between atoms: _179  and  _180
REMARK   59  A    between atoms: _180  and  _181
REMARK   60  A    between atoms: _184  and  _186
REMARK   61  A    between atoms: _186  and  _187
REMARK   62  A    between atoms: _186  and  _189
REMARK   63  A    between atoms: _189  and  _190
REMARK   64  A    between atoms: _193  and  _195
REMARK   65  A    between atoms: _195  and  _196
REMARK   66  A    between atoms: _195  and  _198
REMARK   67  A    between atoms: _198  and  _199
REMARK   68  A    between atoms: _200  and  ZN_447
REMARK   69  A    between atoms: _204  and  _206
REMARK   70  A    between atoms: _206  and  _207
REMARK   71  A    between atoms: _206  and  _209
REMARK   72  A    between atoms: _209  and  _210
REMARK   73  A    between atoms: _213  and  _215
REMARK   74  A    between atoms: _215  and  _216
REMARK   75  A    between atoms: _215  and  _218
REMARK   76  A    between atoms: _221  and  _223
REMARK   77  A    between atoms: _223  and  _224
REMARK   78  A    between atoms: _223  and  _226
REMARK   79  A    between atoms: _226  and  _227
REMARK   80  A    between atoms: _232  and  _234
REMARK   81  A    between atoms: _234  and  _235
REMARK   82  A    between atoms: _234  and  _237
REMARK   83  A    between atoms: _240  and  _242
REMARK   84  A    between atoms: _242  and  _243
REMARK   85  A    between atoms: _245  and  _247
REMARK   86  A    between atoms: _247  and  _248
REMARK   87  A    between atoms: _247  and  _250
REMARK   88  A    between atoms: _250  and  _251
REMARK   89  A    between atoms: _251  and  _252
REMARK   90  A    between atoms: _252  and  _253
REMARK   91  A    between atoms: _253  and  _254
REMARK   92  A    between atoms: _258  and  _260
REMARK   93  A    between atoms: _260  and  _261
REMARK   94  A    between atoms: _264  and  _266
REMARK   95  A    between atoms: _266  and  _267
REMARK   96  A    between atoms: _266  and  _269
REMARK   97  A    between atoms: _272  and  _274
REMARK   98  A    between atoms: _274  and  _275
REMARK   99  A    between atoms: _274  and  _277
REMARK  100  A    between atoms: _277  and  _278
REMARK  101  A    between atoms: _278  and  _279
REMARK  102  A    between atoms: _284  and  _286
REMARK  103  A    between atoms: _286  and  _287
REMARK  104  A    between atoms: _286  and  _289
REMARK  105  A    between atoms: _289  and  _290
REMARK  106  A    between atoms: _293  and  _295
REMARK  107  A    between atoms: _295  and  _296
REMARK  108  A    between atoms: _299  and  _301
REMARK  109  A    between atoms: _301  and  _302
REMARK  110  A    between atoms: _301  and  _304
REMARK  111  A    between atoms: _307  and  _309
REMARK  112  A    between atoms: _309  and  _310
REMARK  113  A    between atoms: _309  and  _312
REMARK  114  A    between atoms: _312  and  _313
REMARK  115  A    between atoms: _316  and  _318
REMARK  116  A    between atoms: _318  and  _319
REMARK  117  A    between atoms: _321  and  _323
REMARK  118  A    between atoms: _323  and  _324
REMARK  119  A    between atoms: _323  and  _326
REMARK  120  A    between atoms: _326  and  _327
REMARK  121  A    between atoms: _329  and  _331
REMARK  122  A    between atoms: _331  and  _332
REMARK  123  A    between atoms: _331  and  _334
REMARK  124  A    between atoms: _334  and  _335
REMARK  125  A    between atoms: _338  and  _340
REMARK  126  A    between atoms: _340  and  _341
REMARK  127  A    between atoms: _340  and  _343
REMARK  128  A    between atoms: _343  and  _344
REMARK  129  A    between atoms: _347  and  _349
REMARK  130  A    between atoms: _349  and  _350
REMARK  131  A    between atoms: _349  and  _352
REMARK  132  A    between atoms: _352  and  _353
REMARK  133  A    between atoms: _357  and  _358
REMARK  134  A    between atoms: _364  and  _365
REMARK  135  A    between atoms: _370  and  _372
REMARK  136  A    between atoms: _372  and  _373
REMARK  137  A    between atoms: _372  and  _375
REMARK  138  A    between atoms: _375  and  _376
REMARK  139  A    between atoms: _379  and  _381
REMARK  140  A    between atoms: _381  and  _382
REMARK  141  A    between atoms: _381  and  _384
REMARK  142  A    between atoms: _384  and  _385
REMARK  143  A    between atoms: _388  and  _390
REMARK  144  A    between atoms: _390  and  _391
REMARK  145  A    between atoms: _390  and  _393
REMARK  146  A    between atoms: _395  and  _397
REMARK  147  A    between atoms: _397  and  _398
REMARK  148  A    between atoms: _397  and  _400
REMARK  149  A    between atoms: _403  and  _405
REMARK  150  A    between atoms: _405  and  _406
REMARK  151  A    between atoms: _405  and  _408
REMARK  152  A    between atoms: _408  and  _409
REMARK  153  A    between atoms: _419  and  _421
REMARK  154  A    between atoms: _421  and  _422
REMARK  155  A    between atoms: _421  and  _424
REMARK  156  A    between atoms: _424  and  _425
REMARK  157  A    between atoms: _430  and  _432
REMARK  158  A    between atoms: _432  and  _433
REMARK  159  A    between atoms: _432  and  _435
REMARK  160  A    between atoms: _435  and  _436
REMARK  161  A    between atoms: _436  and  _437
REMARK  162  A    between atoms: _437  and  _438
REMARK                            x       y       z     vdW  Elec       q    Type
REMARK                         _______ _______ _______ _____ _____    ______ ____
ROOT
ATOM      1  CG  TRP A   1      -8.840   0.127  24.283  0.00  0.00    -0.002 A 
ATOM      2  CD1 TRP A   1      -7.607   0.685  24.452  0.00  0.00    +0.068 A 
ATOM      3  NE1 TRP A   1      -6.882   0.593  23.276  0.00  0.00    -0.352 N 
ATOM      4  HE1 TRP A   1      -5.914   0.946  23.135  0.00  0.00    +0.166 HD
ATOM      5  CE2 TRP A   1      -7.644  -0.038  22.328  0.00  0.00    +0.056 A 
ATOM      6  CZ2 TRP A   1      -7.347  -0.366  20.990  0.00  0.00    +0.017 A 
ATOM      7  CH2 TRP A   1      -8.322  -1.010  20.265  0.00  0.00    +0.001 A 
ATOM      8  CZ3 TRP A   1      -9.575  -1.327  20.837  0.00  0.00    +0.000 A 
ATOM      9  CE3 TRP A   1      -9.865  -1.000  22.160  0.00  0.00    +0.001 A 
ATOM     10  CD2 TRP A   1      -8.889  -0.347  22.925  0.00  0.00    +0.013 A 
ENDROOT
BRANCH   1  11
ATOM     11  CB  TRP A   1      -9.943   0.038  25.294  0.00  0.00    +0.053 C 
BRANCH  11  12
ATOM     12  CA  TRP A   1     -10.989   1.147  25.122  0.00  0.00    +0.137 C 
BRANCH  12  13
ATOM     13  N   TRP A   1     -10.544   2.345  25.789  0.00  0.00    -0.239 NA
ATOM     14  H   TRP A   1      -9.939   2.262  26.631  0.00  0.00    +0.142 HD
ENDBRANCH  12  13
BRANCH  12  15
ATOM     15  C   TRP A   1     -12.344   0.677  25.611  0.00  0.00    +0.224 C 
ATOM     16  O   TRP A   1     -12.601   0.631  26.815  0.00  0.00    -0.287 OA
ENDBRANCH  12  15
ENDBRANCH  11  12
ENDBRANCH   1  11
TORSDOF 4
REMARK  Name = ../refined-set-2016/1g48/1g48_pocket.pdb
REMARK  162 active torsions:
REMARK  status: ('A' for Active; 'I' for Inactive)
REMARK    1  A    between atoms: _1  and  _3
REMARK    2  A    between atoms: _3  and  _4
REMARK    3  A    between atoms: _3  and  _6
REMARK    4  A    between atoms: _6  and  _7
REMARK    5  A    between atoms: _17  and  _19
REMARK    6  A    between atoms: _19  and  _20
REMARK    7  A    between atoms: _19  and  _22
REMARK    8  A    between atoms: _22  and  _23
REMARK    9  A    between atoms: _28  and  _29
REMARK   10  A    between atoms: _31  and  _33
REMARK   11  A    between atoms: _33  and  _34
REMARK   12  A    between atoms: _33  and  _36
REMARK   13  A    between atoms: _36  and  _37
REMARK   14  A    between atoms: _43  and  _45
REMARK   15  A    between atoms: _45  and  _46
REMARK   16  A    between atoms: _45  and  _48
REMARK   17  A    between atoms: _48  and  _49
REMARK   18  A    between atoms: _52  and  _53
REMARK   19  A    between atoms: _58  and  _60
REMARK   20  A    between atoms: _60  and  _61
REMARK   21  A    between atoms: _60  and  _63
REMARK   22  A    between atoms: _63  and  _64
REMARK   23  A    between atoms: _69  and  _71
REMARK   24  A    between atoms: _71  and  _72
REMARK   25  A    between atoms: _75  and  _77
REMARK   26  A    between atoms: _77  and  _78
REMARK   27  A    between atoms: _77  and  _80
REMARK   28  A    between atoms: _80  and  _81
REMARK   29  A    between atoms: _86  and  _88
REMARK   30  A    between atoms: _88  and  _89
REMARK   31  A    between atoms: _88  and  _91
REMARK   32  A    between atoms: _91  and  _92
REMARK   33  A    between atoms: _95  and  _97
REMARK   34  A    between atoms: _97  and  _98
REMARK   35  A    between atoms: _97  and  _100
REMARK   36  A    between atoms: _100  and  _101
REMARK   37  A    between atoms: _101  and  _102
REMARK   38  A    between atoms: _107  and  _109
REMARK   39  A    between atoms: _109  and  _110
REMARK   40  A    between atoms: _109  and  _112
REMARK   41  A    between atoms: _112  and  _113
REMARK   42  A    between atoms: _119  and  _121
REMARK   43  A    between atoms: _132  and  _135
REMARK   44  A    between atoms: _135  and  _136
REMARK   45  A    between atoms: _144  and  _145
REMARK   46  A    between atoms: _153  and  _155
REMARK   47  A    between atoms: _155  and  _156
REMARK   48  A    between atoms: _155  and  _158
REMARK   49  A    between atoms: _158  and  _159
REMARK   50  A    between atoms: _159  and  _160
REMARK   51  A    between atoms: _163  and  _165
REMARK   52  A    between atoms: _165  and  _166
REMARK   53  A    between atoms: _165  and  _168
REMARK   54  A    between atoms: _168  and  _169
REMARK   55  A    between atoms: _174  and  _176
REMARK   56  A    between atoms: _176  and  _177
REMARK   57  A    between atoms: _176  and  _179
REMARK   58  A    between atoms: _179  and  _180
REMARK   59  A    between atoms: _180  and  _181
REMARK   60  A    between atoms: _184  and  _186
REMARK   61  A    between atoms: _186  and  _187
REMARK   62  A    between atoms: _186  and  _189
REMARK   63  A    between atoms: _189  and  _190
REMARK   64  A    between atoms: _193  and  _195
REMARK   65  A    between atoms: _195  and  _196
REMARK   66  A    between atoms: _195  and  _198
REMARK   67  A    between atoms: _198  and  _199
REMARK   68  A    between atoms: _200  and  ZN_447
REMARK   69  A    between atoms: _204  and  _206
REMARK   70  A    between atoms: _206  and  _207
REMARK   71  A    between atoms: _206  and  _209
REMARK   72  A    between atoms: _209  and  _210
REMARK   73  A    between atoms: _213  and  _215
REMARK   74  A    between atoms: _215  and  _216
REMARK   75  A    between atoms: _215  and  _218
REMARK   76  A    between atoms: _221  and  _223
REMARK   77  A    between atoms: _223  and  _224
REMARK   78  A    between atoms: _223  and  _226
REMARK   79  A    between atoms: _226  and  _227
REMARK   80  A    between atoms: _232  and  _234
REMARK   81  A    between atoms: _234  and  _235
REMARK   82  A    between atoms: _234  and  _237
REMARK   83  A    between atoms: _240  and  _242
REMARK   84  A    between atoms: _242  and  _243
REMARK   85  A    between atoms: _245  and  _247
REMARK   86  A    between atoms: _247  and  _248
REMARK   87  A    between atoms: _247  and  _250
REMARK   88  A    between atoms: _250  and  _251
REMARK   89  A    between atoms: _251  and  _252
REMARK   90  A    between atoms: _252  and  _253
REMARK   91  A    between atoms: _253  and  _254
REMARK   92  A    between atoms: _258  and  _260
REMARK   93  A    between atoms: _260  and  _261
REMARK   94  A    between atoms: _264  and  _266
REMARK   95  A    between atoms: _266  and  _267
REMARK   96  A    between atoms: _266  and  _269
REMARK   97  A    between atoms: _272  and  _274
REMARK   98  A    between atoms: _274  and  _275
REMARK   99  A    between atoms: _274  and  _277
REMARK  100  A    between atoms: _277  and  _278
REMARK  101  A    between atoms: _278  and  _279
REMARK  102  A    between atoms: _284  and  _286
REMARK  103  A    between atoms: _286  and  _287
REMARK  104  A    between atoms: _286  and  _289
REMARK  105  A    between atoms: _289  and  _290
REMARK  106  A    between atoms: _293  and  _295
REMARK  107  A    between atoms: _295  and  _296
REMARK  108  A    between atoms: _299  and  _301
REMARK  109  A    between atoms: _301  and  _302
REMARK  110  A    between atoms: _301  and  _304
REMARK  111  A    between atoms: _307  and  _309
REMARK  112  A    between atoms: _309  and  _310
REMARK  113  A    between atoms: _309  and  _312
REMARK  114  A    between atoms: _312  and  _313
REMARK  115  A    between atoms: _316  and  _318
REMARK  116  A    between atoms: _318  and  _319
REMARK  117  A    between atoms: _321  and  _323
REMARK  118  A    between atoms: _323  and  _324
REMARK  119  A    between atoms: _323  and  _326
REMARK  120  A    between atoms: _326  and  _327
REMARK  121  A    between atoms: _329  and  _331
REMARK  122  A    between atoms: _331  and  _332
REMARK  123  A    between atoms: _331  and  _334
REMARK  124  A    between atoms: _334  and  _335
REMARK  125  A    between atoms: _338  and  _340
REMARK  126  A    between atoms: _340  and  _341
REMARK  127  A    between atoms: _340  and  _343
REMARK  128  A    between atoms: _343  and  _344
REMARK  129  A    between atoms: _347  and  _349
REMARK  130  A    between atoms: _349  and  _350
REMARK  131  A    between atoms: _349  and  _352
REMARK  132  A    between atoms: _352  and  _353
REMARK  133  A    between atoms: _357  and  _358
REMARK  134  A    between atoms: _364  and  _365
REMARK  135  A    between atoms: _370  and  _372
REMARK  136  A    between atoms: _372  and  _373
REMARK  137  A    between atoms: _372  and  _375
REMARK  138  A    between atoms: _375  and  _376
REMARK  139  A    between atoms: _379  and  _381
REMARK  140  A    between atoms: _381  and  _382
REMARK  141  A    between atoms: _381  and  _384
REMARK  142  A    between atoms: _384  and  _385
REMARK  143  A    between atoms: _388  and  _390
REMARK  144  A    between atoms: _390  and  _391
REMARK  145  A    between atoms: _390  and  _393
REMARK  146  A    between atoms: _395  and  _397
REMARK  147  A    between atoms: _397  and  _398
REMARK  148  A    between atoms: _397  and  _400
REMARK  149  A    between atoms: _403  and  _405
REMARK  150  A    between atoms: _405  and  _406
REMARK  151  A    between atoms: _405  and  _408
REMARK  152  A    between atoms: _408  and  _409
REMARK  153  A    between atoms: _419  and  _421
REMARK  154  A    between atoms: _421  and  _422
REMARK  155  A    between atoms: _421  and  _424
REMARK  156  A    between atoms: _424  and  _425
REMARK  157  A    between atoms: _430  and  _432
REMARK  158  A    between atoms: _432  and  _433
REMARK  159  A    between atoms: _432  and  _435
REMARK  160  A    between atoms: _435  and  _436
REMARK  161  A    between atoms: _436  and  _437
REMARK  162  A    between atoms: _437  and  _438
REMARK                            x       y       z     vdW  Elec       q    Type
REMARK                         _______ _______ _______ _____ _____    ______ ____
ROOT
ATOM      1  CB  ASN A   1      -2.066  -7.112  10.563  0.00  0.00    +0.110 C 
ENDROOT
BRANCH   1   2
ATOM      2  CG  ASN A   1      -3.562  -7.324  10.341  0.00  0.00    +0.221 C 
ATOM      3  OD1 ASN A   1      -4.161  -8.254  10.891  0.00  0.00    -0.275 OA
ATOM      4  ND2 ASN A   1      -4.166  -6.473   9.526  0.00  0.00    -0.329 N 
ATOM      5 HD21 ASN A   1      -5.182  -6.574   9.329  0.00  0.00    +0.145 HD
ATOM      6 HD22 ASN A   1      -3.624  -5.703   9.083  0.00  0.00    +0.145 HD
ENDBRANCH   1   2
BRANCH   1   7
ATOM      7  CA  ASN A   1      -1.487  -8.024  11.648  0.00  0.00    +0.142 C 
BRANCH   7   8
ATOM      8  N   ASN A   1      -1.857  -9.416  11.409  0.00  0.00    -0.239 NA
ATOM      9  H   ASN A   1      -2.769  -9.631  10.959  0.00  0.00    +0.142 HD
ENDBRANCH   7   8
BRANCH   7  10
ATOM     10  C   ASN A   1      -2.016  -7.619  13.031  0.00  0.00    +0.225 C 
ATOM     11  O   ASN A   1      -2.718  -6.612  13.175  0.00  0.00    -0.287 OA
ENDBRANCH   7  10
ENDBRANCH   1   7
TORSDOF 4
REMARK  Name = ../refined-set-2016/1g48/1g48_pocket.pdb
REMARK  162 active torsions:
REMARK  status: ('A' for Active; 'I' for Inactive)
REMARK    1  A    between atoms: _1  and  _3
REMARK    2  A    between atoms: _3  and  _4
REMARK    3  A    between atoms: _3  and  _6
REMARK    4  A    between atoms: _6  and  _7
REMARK    5  A    between atoms: _17  and  _19
REMARK    6  A    between atoms: _19  and  _20
REMARK    7  A    between atoms: _19  and  _22
REMARK    8  A    between atoms: _22  and  _23
REMARK    9  A    between atoms: _28  and  _29
REMARK   10  A    between atoms: _31  and  _33
REMARK   11  A    between atoms: _33  and  _34
REMARK   12  A    between atoms: _33  and  _36
REMARK   13  A    between atoms: _36  and  _37
REMARK   14  A    between atoms: _43  and  _45
REMARK   15  A    between atoms: _45  and  _46
REMARK   16  A    between atoms: _45  and  _48
REMARK   17  A    between atoms: _48  and  _49
REMARK   18  A    between atoms: _52  and  _53
REMARK   19  A    between atoms: _58  and  _60
REMARK   20  A    between atoms: _60  and  _61
REMARK   21  A    between atoms: _60  and  _63
REMARK   22  A    between atoms: _63  and  _64
REMARK   23  A    between atoms: _69  and  _71
REMARK   24  A    between atoms: _71  and  _72
REMARK   25  A    between atoms: _75  and  _77
REMARK   26  A    between atoms: _77  and  _78
REMARK   27  A    between atoms: _77  and  _80
REMARK   28  A    between atoms: _80  and  _81
REMARK   29  A    between atoms: _86  and  _88
REMARK   30  A    between atoms: _88  and  _89
REMARK   31  A    between atoms: _88  and  _91
REMARK   32  A    between atoms: _91  and  _92
REMARK   33  A    between atoms: _95  and  _97
REMARK   34  A    between atoms: _97  and  _98
REMARK   35  A    between atoms: _97  and  _100
REMARK   36  A    between atoms: _100  and  _101
REMARK   37  A    between atoms: _101  and  _102
REMARK   38  A    between atoms: _107  and  _109
REMARK   39  A    between atoms: _109  and  _110
REMARK   40  A    between atoms: _109  and  _112
REMARK   41  A    between atoms: _112  and  _113
REMARK   42  A    between atoms: _119  and  _121
REMARK   43  A    between atoms: _132  and  _135
REMARK   44  A    between atoms: _135  and  _136
REMARK   45  A    between atoms: _144  and  _145
REMARK   46  A    between atoms: _153  and  _155
REMARK   47  A    between atoms: _155  and  _156
REMARK   48  A    between atoms: _155  and  _158
REMARK   49  A    between atoms: _158  and  _159
REMARK   50  A    between atoms: _159  and  _160
REMARK   51  A    between atoms: _163  and  _165
REMARK   52  A    between atoms: _165  and  _166
REMARK   53  A    between atoms: _165  and  _168
REMARK   54  A    between atoms: _168  and  _169
REMARK   55  A    between atoms: _174  and  _176
REMARK   56  A    between atoms: _176  and  _177
REMARK   57  A    between atoms: _176  and  _179
REMARK   58  A    between atoms: _179  and  _180
REMARK   59  A    between atoms: _180  and  _181
REMARK   60  A    between atoms: _184  and  _186
REMARK   61  A    between atoms: _186  and  _187
REMARK   62  A    between atoms: _186  and  _189
REMARK   63  A    between atoms: _189  and  _190
REMARK   64  A    between atoms: _193  and  _195
REMARK   65  A    between atoms: _195  and  _196
REMARK   66  A    between atoms: _195  and  _198
REMARK   67  A    between atoms: _198  and  _199
REMARK   68  A    between atoms: _200  and  ZN_447
REMARK   69  A    between atoms: _204  and  _206
REMARK   70  A    between atoms: _206  and  _207
REMARK   71  A    between atoms: _206  and  _209
REMARK   72  A    between atoms: _209  and  _210
REMARK   73  A    between atoms: _213  and  _215
REMARK   74  A    between atoms: _215  and  _216
REMARK   75  A    between atoms: _215  and  _218
REMARK   76  A    between atoms: _221  and  _223
REMARK   77  A    between atoms: _223  and  _224
REMARK   78  A    between atoms: _223  and  _226
REMARK   79  A    between atoms: _226  and  _227
REMARK   80  A    between atoms: _232  and  _234
REMARK   81  A    between atoms: _234  and  _235
REMARK   82  A    between atoms: _234  and  _237
REMARK   83  A    between atoms: _240  and  _242
REMARK   84  A    between atoms: _242  and  _243
REMARK   85  A    between atoms: _245  and  _247
REMARK   86  A    between atoms: _247  and  _248
REMARK   87  A    between atoms: _247  and  _250
REMARK   88  A    between atoms: _250  and  _251
REMARK   89  A    between atoms: _251  and  _252
REMARK   90  A    between atoms: _252  and  _253
REMARK   91  A    between atoms: _253  and  _254
REMARK   92  A    between atoms: _258  and  _260
REMARK   93  A    between atoms: _260  and  _261
REMARK   94  A    between atoms: _264  and  _266
REMARK   95  A    between atoms: _266  and  _267
REMARK   96  A    between atoms: _266  and  _269
REMARK   97  A    between atoms: _272  and  _274
REMARK   98  A    between atoms: _274  and  _275
REMARK   99  A    between atoms: _274  and  _277
REMARK  100  A    between atoms: _277  and  _278
REMARK  101  A    between atoms: _278  and  _279
REMARK  102  A    between atoms: _284  and  _286
REMARK  103  A    between atoms: _286  and  _287
REMARK  104  A    between atoms: _286  and  _289
REMARK  105  A    between atoms: _289  and  _290
REMARK  106  A    between atoms: _293  and  _295
REMARK  107  A    between atoms: _295  and  _296
REMARK  108  A    between atoms: _299  and  _301
REMARK  109  A    between atoms: _301  and  _302
REMARK  110  A    between atoms: _301  and  _304
REMARK  111  A    between atoms: _307  and  _309
REMARK  112  A    between atoms: _309  and  _310
REMARK  113  A    between atoms: _309  and  _312
REMARK  114  A    between atoms: _312  and  _313
REMARK  115  A    between atoms: _316  and  _318
REMARK  116  A    between atoms: _318  and  _319
REMARK  117  A    between atoms: _321  and  _323
REMARK  118  A    between atoms: _323  and  _324
REMARK  119  A    between atoms: _323  and  _326
REMARK  120  A    between atoms: _326  and  _327
REMARK  121  A    between atoms: _329  and  _331
REMARK  122  A    between atoms: _331  and  _332
REMARK  123  A    between atoms: _331  and  _334
REMARK  124  A    between atoms: _334  and  _335
REMARK  125  A    between atoms: _338  and  _340
REMARK  126  A    between atoms: _340  and  _341
REMARK  127  A    between atoms: _340  and  _343
REMARK  128  A    between atoms: _343  and  _344
REMARK  129  A    between atoms: _347  and  _349
REMARK  130  A    between atoms: _349  and  _350
REMARK  131  A    between atoms: _349  and  _352
REMARK  132  A    between atoms: _352  and  _353
REMARK  133  A    between atoms: _357  and  _358
REMARK  134  A    between atoms: _364  and  _365
REMARK  135  A    between atoms: _370  and  _372
REMARK  136  A    between atoms: _372  and  _373
REMARK  137  A    between atoms: _372  and  _375
REMARK  138  A    between atoms: _375  and  _376
REMARK  139  A    between atoms: _379  and  _381
REMARK  140  A    between atoms: _381  and  _382
REMARK  141  A    between atoms: _381  and  _384
REMARK  142  A    between atoms: _384  and  _385
REMARK  143  A    between atoms: _388  and  _390
REMARK  144  A    between atoms: _390  and  _391
REMARK  145  A    between atoms: _390  and  _393
REMARK  146  A    between atoms: _395  and  _397
REMARK  147  A    between atoms: _397  and  _398
REMARK  148  A    between atoms: _397  and  _400
REMARK  149  A    between atoms: _403  and  _405
REMARK  150  A    between atoms: _405  and  _406
REMARK  151  A    between atoms: _405  and  _408
REMARK  152  A    between atoms: _408  and  _409
REMARK  153  A    between atoms: _419  and  _421
REMARK  154  A    between atoms: _421  and  _422
REMARK  155  A    between atoms: _421  and  _424
REMARK  156  A    between atoms: _424  and  _425
REMARK  157  A    between atoms: _430  and  _432
REMARK  158  A    between atoms: _432  and  _433
REMARK  159  A    between atoms: _432  and  _435
REMARK  160  A    between atoms: _435  and  _436
REMARK  161  A    between atoms: _436  and  _437
REMARK  162  A    between atoms: _437  and  _438
REMARK                            x       y       z     vdW  Elec       q    Type
REMARK                         _______ _______ _______ _____ _____    ______ ____
ROOT
ATOM      1  NE  ARG A   1       2.163  -3.760  21.219  0.00  0.00    -0.265 N 
ATOM      2  CZ  ARG A   1       2.310  -2.742  22.056  0.00  0.00    +0.342 C 
ATOM      3  NH2 ARG A   1       3.507  -2.522  22.587  0.00  0.00    -0.292 N 
ATOM      4 HH21 ARG A   1       3.646  -1.729  23.246  0.00  0.00    +0.255 HD
ATOM      5 HH22 ARG A   1       4.306  -3.142  22.344  0.00  0.00    +0.255 HD
ATOM      6  NH1 ARG A   1       1.297  -1.916  22.315  0.00  0.00    -0.292 N 
ATOM      7 HH11 ARG A   1       1.429  -1.122  22.974  0.00  0.00    +0.255 HD
ATOM      8 HH12 ARG A   1       0.375  -2.065  21.858  0.00  0.00    +0.255 HD
ATOM      9  HE  ARG A   1       2.986  -4.377  21.066  0.00  0.00    +0.259 HD
ENDROOT
BRANCH   1  10
ATOM     10  CD  ARG A   1       0.943  -4.083  20.498  0.00  0.00    +0.174 C 
BRANCH  10  11
ATOM     11  CG  ARG A   1       1.052  -5.484  19.963  0.00  0.00    +0.045 C 
BRANCH  11  12
ATOM     12  CB  ARG A   1      -0.038  -5.729  18.953  0.00  0.00    +0.029 C 
BRANCH  12  13
ATOM     13  CA  ARG A   1      -0.077  -7.170  18.466  0.00  0.00    +0.133 C 
BRANCH  13  14
ATOM     14  N   ARG A   1      -1.078  -7.311  17.422  0.00  0.00    -0.239 NA
ATOM     15  H   ARG A   1      -1.947  -6.744  17.488  0.00  0.00    +0.142 HD
ENDBRANCH  13  14
BRANCH  13  16
ATOM     16  C   ARG A   1      -0.522  -8.042  19.628  0.00  0.00    +0.224 C 
ATOM     17  O   ARG A   1      -1.703  -8.052  19.982  0.00  0.00    -0.287 OA
ENDBRANCH  13  16
ENDBRANCH  12  13
ENDBRANCH  11  12
ENDBRANCH  10  11
ENDBRANCH   1  10
TORSDOF 6
REMARK  Name = ../refined-set-2016/1g48/1g48_pocket.pdb
REMARK  162 active torsions:
REMARK  status: ('A' for Active; 'I' for Inactive)
REMARK    1  A    between atoms: _1  and  _3
REMARK    2  A    between atoms: _3  and  _4
REMARK    3  A    between atoms: _3  and  _6
REMARK    4  A    between atoms: _6  and  _7
REMARK    5  A    between atoms: _17  and  _19
REMARK    6  A    between atoms: _19  and  _20
REMARK    7  A    between atoms: _19  and  _22
REMARK    8  A    between atoms: _22  and  _23
REMARK    9  A    between atoms: _28  and  _29
REMARK   10  A    between atoms: _31  and  _33
REMARK   11  A    between atoms: _33  and  _34
REMARK   12  A    between atoms: _33  and  _36
REMARK   13  A    between atoms: _36  and  _37
REMARK   14  A    between atoms: _43  and  _45
REMARK   15  A    between atoms: _45  and  _46
REMARK   16  A    between atoms: _45  and  _48
REMARK   17  A    between atoms: _48  and  _49
REMARK   18  A    between atoms: _52  and  _53
REMARK   19  A    between atoms: _58  and  _60
REMARK   20  A    between atoms: _60  and  _61
REMARK   21  A    between atoms: _60  and  _63
REMARK   22  A    between atoms: _63  and  _64
REMARK   23  A    between atoms: _69  and  _71
REMARK   24  A    between atoms: _71  and  _72
REMARK   25  A    between atoms: _75  and  _77
REMARK   26  A    between atoms: _77  and  _78
REMARK   27  A    between atoms: _77  and  _80
REMARK   28  A    between atoms: _80  and  _81
REMARK   29  A    between atoms: _86  and  _88
REMARK   30  A    between atoms: _88  and  _89
REMARK   31  A    between atoms: _88  and  _91
REMARK   32  A    between atoms: _91  and  _92
REMARK   33  A    between atoms: _95  and  _97
REMARK   34  A    between atoms: _97  and  _98
REMARK   35  A    between atoms: _97  and  _100
REMARK   36  A    between atoms: _100  and  _101
REMARK   37  A    between atoms: _101  and  _102
REMARK   38  A    between atoms: _107  and  _109
REMARK   39  A    between atoms: _109  and  _110
REMARK   40  A    between atoms: _109  and  _112
REMARK   41  A    between atoms: _112  and  _113
REMARK   42  A    between atoms: _119  and  _121
REMARK   43  A    between atoms: _132  and  _135
REMARK   44  A    between atoms: _135  and  _136
REMARK   45  A    between atoms: _144  and  _145
REMARK   46  A    between atoms: _153  and  _155
REMARK   47  A    between atoms: _155  and  _156
REMARK   48  A    between atoms: _155  and  _158
REMARK   49  A    between atoms: _158  and  _159
REMARK   50  A    between atoms: _159  and  _160
REMARK   51  A    between atoms: _163  and  _165
REMARK   52  A    between atoms: _165  and  _166
REMARK   53  A    between atoms: _165  and  _168
REMARK   54  A    between atoms: _168  and  _169
REMARK   55  A    between atoms: _174  and  _176
REMARK   56  A    between atoms: _176  and  _177
REMARK   57  A    between atoms: _176  and  _179
REMARK   58  A    between atoms: _179  and  _180
REMARK   59  A    between atoms: _180  and  _181
REMARK   60  A    between atoms: _184  and  _186
REMARK   61  A    between atoms: _186  and  _187
REMARK   62  A    between atoms: _186  and  _189
REMARK   63  A    between atoms: _189  and  _190
REMARK   64  A    between atoms: _193  and  _195
REMARK   65  A    between atoms: _195  and  _196
REMARK   66  A    between atoms: _195  and  _198
REMARK   67  A    between atoms: _198  and  _199
REMARK   68  A    between atoms: _200  and  ZN_447
REMARK   69  A    between atoms: _204  and  _206
REMARK   70  A    between atoms: _206  and  _207
REMARK   71  A    between atoms: _206  and  _209
REMARK   72  A    between atoms: _209  and  _210
REMARK   73  A    between atoms: _213  and  _215
REMARK   74  A    between atoms: _215  and  _216
REMARK   75  A    between atoms: _215  and  _218
REMARK   76  A    between atoms: _221  and  _223
REMARK   77  A    between atoms: _223  and  _224
REMARK   78  A    between atoms: _223  and  _226
REMARK   79  A    between atoms: _226  and  _227
REMARK   80  A    between atoms: _232  and  _234
REMARK   81  A    between atoms: _234  and  _235
REMARK   82  A    between atoms: _234  and  _237
REMARK   83  A    between atoms: _240  and  _242
REMARK   84  A    between atoms: _242  and  _243
REMARK   85  A    between atoms: _245  and  _247
REMARK   86  A    between atoms: _247  and  _248
REMARK   87  A    between atoms: _247  and  _250
REMARK   88  A    between atoms: _250  and  _251
REMARK   89  A    between atoms: _251  and  _252
REMARK   90  A    between atoms: _252  and  _253
REMARK   91  A    between atoms: _253  and  _254
REMARK   92  A    between atoms: _258  and  _260
REMARK   93  A    between atoms: _260  and  _261
REMARK   94  A    between atoms: _264  and  _266
REMARK   95  A    between atoms: _266  and  _267
REMARK   96  A    between atoms: _266  and  _269
REMARK   97  A    between atoms: _272  and  _274
REMARK   98  A    between atoms: _274  and  _275
REMARK   99  A    between atoms: _274  and  _277
REMARK  100  A    between atoms: _277  and  _278
REMARK  101  A    between atoms: _278  and  _279
REMARK  102  A    between atoms: _284  and  _286
REMARK  103  A    between atoms: _286  and  _287
REMARK  104  A    between atoms: _286  and  _289
REMARK  105  A    between atoms: _289  and  _290
REMARK  106  A    between atoms: _293  and  _295
REMARK  107  A    between atoms: _295  and  _296
REMARK  108  A    between atoms: _299  and  _301
REMARK  109  A    between atoms: _301  and  _302
REMARK  110  A    between atoms: _301  and  _304
REMARK  111  A    between atoms: _307  and  _309
REMARK  112  A    between atoms: _309  and  _310
REMARK  113  A    between atoms: _309  and  _312
REMARK  114  A    between atoms: _312  and  _313
REMARK  115  A    between atoms: _316  and  _318
REMARK  116  A    between atoms: _318  and  _319
REMARK  117  A    between atoms: _321  and  _323
REMARK  118  A    between atoms: _323  and  _324
REMARK  119  A    between atoms: _323  and  _326
REMARK  120  A    between atoms: _326  and  _327
REMARK  121  A    between atoms: _329  and  _331
REMARK  122  A    between atoms: _331  and  _332
REMARK  123  A    between atoms: _331  and  _334
REMARK  124  A    between atoms: _334  and  _335
REMARK  125  A    between atoms: _338  and  _340
REMARK  126  A    between atoms: _340  and  _341
REMARK  127  A    between atoms: _340  and  _343
REMARK  128  A    between atoms: _343  and  _344
REMARK  129  A    between atoms: _347  and  _349
REMARK  130  A    between atoms: _349  and  _350
REMARK  131  A    between atoms: _349  and  _352
REMARK  132  A    between atoms: _352  and  _353
REMARK  133  A    between atoms: _357  and  _358
REMARK  134  A    between atoms: _364  and  _365
REMARK  135  A    between atoms: _370  and  _372
REMARK  136  A    between atoms: _372  and  _373
REMARK  137  A    between atoms: _372  and  _375
REMARK  138  A    between atoms: _375  and  _376
REMARK  139  A    between atoms: _379  and  _381
REMARK  140  A    between atoms: _381  and  _382
REMARK  141  A    between atoms: _381  and  _384
REMARK  142  A    between atoms: _384  and  _385
REMARK  143  A    between atoms: _388  and  _390
REMARK  144  A    between atoms: _390  and  _391
REMARK  145  A    between atoms: _390  and  _393
REMARK  146  A    between atoms: _395  and  _397
REMARK  147  A    between atoms: _397  and  _398
REMARK  148  A    between atoms: _397  and  _400
REMARK  149  A    between atoms: _403  and  _405
REMARK  150  A    between atoms: _405  and  _406
REMARK  151  A    between atoms: _405  and  _408
REMARK  152  A    between atoms: _408  and  _409
REMARK  153  A    between atoms: _419  and  _421
REMARK  154  A    between atoms: _421  and  _422
REMARK  155  A    between atoms: _421  and  _424
REMARK  156  A    between atoms: _424  and  _425
REMARK  157  A    between atoms: _430  and  _432
REMARK  158  A    between atoms: _432  and  _433
REMARK  159  A    between atoms: _432  and  _435
REMARK  160  A    between atoms: _435  and  _436
REMARK  161  A    between atoms: _436  and  _437
REMARK  162  A    between atoms: _437  and  _438
REMARK                            x       y       z     vdW  Elec       q    Type
REMARK                         _______ _______ _______ _____ _____    ______ ____
ROOT
ATOM      1  O   HOH     1      -1.350  -3.960  15.945  0.00  0.00    +0.000 OA
ENDROOT
TORSDOF 0
REMARK  Name = ../refined-set-2016/1g48/1g48_pocket.pdb
REMARK  162 active torsions:
REMARK  status: ('A' for Active; 'I' for Inactive)
REMARK    1  A    between atoms: _1  and  _3
REMARK    2  A    between atoms: _3  and  _4
REMARK    3  A    between atoms: _3  and  _6
REMARK    4  A    between atoms: _6  and  _7
REMARK    5  A    between atoms: _17  and  _19
REMARK    6  A    between atoms: _19  and  _20
REMARK    7  A    between atoms: _19  and  _22
REMARK    8  A    between atoms: _22  and  _23
REMARK    9  A    between atoms: _28  and  _29
REMARK   10  A    between atoms: _31  and  _33
REMARK   11  A    between atoms: _33  and  _34
REMARK   12  A    between atoms: _33  and  _36
REMARK   13  A    between atoms: _36  and  _37
REMARK   14  A    between atoms: _43  and  _45
REMARK   15  A    between atoms: _45  and  _46
REMARK   16  A    between atoms: _45  and  _48
REMARK   17  A    between atoms: _48  and  _49
REMARK   18  A    between atoms: _52  and  _53
REMARK   19  A    between atoms: _58  and  _60
REMARK   20  A    between atoms: _60  and  _61
REMARK   21  A    between atoms: _60  and  _63
REMARK   22  A    between atoms: _63  and  _64
REMARK   23  A    between atoms: _69  and  _71
REMARK   24  A    between atoms: _71  and  _72
REMARK   25  A    between atoms: _75  and  _77
REMARK   26  A    between atoms: _77  and  _78
REMARK   27  A    between atoms: _77  and  _80
REMARK   28  A    between atoms: _80  and  _81
REMARK   29  A    between atoms: _86  and  _88
REMARK   30  A    between atoms: _88  and  _89
REMARK   31  A    between atoms: _88  and  _91
REMARK   32  A    between atoms: _91  and  _92
REMARK   33  A    between atoms: _95  and  _97
REMARK   34  A    between atoms: _97  and  _98
REMARK   35  A    between atoms: _97  and  _100
REMARK   36  A    between atoms: _100  and  _101
REMARK   37  A    between atoms: _101  and  _102
REMARK   38  A    between atoms: _107  and  _109
REMARK   39  A    between atoms: _109  and  _110
REMARK   40  A    between atoms: _109  and  _112
REMARK   41  A    between atoms: _112  and  _113
REMARK   42  A    between atoms: _119  and  _121
REMARK   43  A    between atoms: _132  and  _135
REMARK   44  A    between atoms: _135  and  _136
REMARK   45  A    between atoms: _144  and  _145
REMARK   46  A    between atoms: _153  and  _155
REMARK   47  A    between atoms: _155  and  _156
REMARK   48  A    between atoms: _155  and  _158
REMARK   49  A    between atoms: _158  and  _159
REMARK   50  A    between atoms: _159  and  _160
REMARK   51  A    between atoms: _163  and  _165
REMARK   52  A    between atoms: _165  and  _166
REMARK   53  A    between atoms: _165  and  _168
REMARK   54  A    between atoms: _168  and  _169
REMARK   55  A    between atoms: _174  and  _176
REMARK   56  A    between atoms: _176  and  _177
REMARK   57  A    between atoms: _176  and  _179
REMARK   58  A    between atoms: _179  and  _180
REMARK   59  A    between atoms: _180  and  _181
REMARK   60  A    between atoms: _184  and  _186
REMARK   61  A    between atoms: _186  and  _187
REMARK   62  A    between atoms: _186  and  _189
REMARK   63  A    between atoms: _189  and  _190
REMARK   64  A    between atoms: _193  and  _195
REMARK   65  A    between atoms: _195  and  _196
REMARK   66  A    between atoms: _195  and  _198
REMARK   67  A    between atoms: _198  and  _199
REMARK   68  A    between atoms: _200  and  ZN_447
REMARK   69  A    between atoms: _204  and  _206
REMARK   70  A    between atoms: _206  and  _207
REMARK   71  A    between atoms: _206  and  _209
REMARK   72  A    between atoms: _209  and  _210
REMARK   73  A    between atoms: _213  and  _215
REMARK   74  A    between atoms: _215  and  _216
REMARK   75  A    between atoms: _215  and  _218
REMARK   76  A    between atoms: _221  and  _223
REMARK   77  A    between atoms: _223  and  _224
REMARK   78  A    between atoms: _223  and  _226
REMARK   79  A    between atoms: _226  and  _227
REMARK   80  A    between atoms: _232  and  _234
REMARK   81  A    between atoms: _234  and  _235
REMARK   82  A    between atoms: _234  and  _237
REMARK   83  A    between atoms: _240  and  _242
REMARK   84  A    between atoms: _242  and  _243
REMARK   85  A    between atoms: _245  and  _247
REMARK   86  A    between atoms: _247  and  _248
REMARK   87  A    between atoms: _247  and  _250
REMARK   88  A    between atoms: _250  and  _251
REMARK   89  A    between atoms: _251  and  _252
REMARK   90  A    between atoms: _252  and  _253
REMARK   91  A    between atoms: _253  and  _254
REMARK   92  A    between atoms: _258  and  _260
REMARK   93  A    between atoms: _260  and  _261
REMARK   94  A    between atoms: _264  and  _266
REMARK   95  A    between atoms: _266  and  _267
REMARK   96  A    between atoms: _266  and  _269
REMARK   97  A    between atoms: _272  and  _274
REMARK   98  A    between atoms: _274  and  _275
REMARK   99  A    between atoms: _274  and  _277
REMARK  100  A    between atoms: _277  and  _278
REMARK  101  A    between atoms: _278  and  _279
REMARK  102  A    between atoms: _284  and  _286
REMARK  103  A    between atoms: _286  and  _287
REMARK  104  A    between atoms: _286  and  _289
REMARK  105  A    between atoms: _289  and  _290
REMARK  106  A    between atoms: _293  and  _295
REMARK  107  A    between atoms: _295  and  _296
REMARK  108  A    between atoms: _299  and  _301
REMARK  109  A    between atoms: _301  and  _302
REMARK  110  A    between atoms: _301  and  _304
REMARK  111  A    between atoms: _307  and  _309
REMARK  112  A    between atoms: _309  and  _310
REMARK  113  A    between atoms: _309  and  _312
REMARK  114  A    between atoms: _312  and  _313
REMARK  115  A    between atoms: _316  and  _318
REMARK  116  A    between atoms: _318  and  _319
REMARK  117  A    between atoms: _321  and  _323
REMARK  118  A    between atoms: _323  and  _324
REMARK  119  A    between atoms: _323  and  _326
REMARK  120  A    between atoms: _326  and  _327
REMARK  121  A    between atoms: _329  and  _331
REMARK  122  A    between atoms: _331  and  _332
REMARK  123  A    between atoms: _331  and  _334
REMARK  124  A    between atoms: _334  and  _335
REMARK  125  A    between atoms: _338  and  _340
REMARK  126  A    between atoms: _340  and  _341
REMARK  127  A    between atoms: _340  and  _343
REMARK  128  A    between atoms: _343  and  _344
REMARK  129  A    between atoms: _347  and  _349
REMARK  130  A    between atoms: _349  and  _350
REMARK  131  A    between atoms: _349  and  _352
REMARK  132  A    between atoms: _352  and  _353
REMARK  133  A    between atoms: _357  and  _358
REMARK  134  A    between atoms: _364  and  _365
REMARK  135  A    between atoms: _370  and  _372
REMARK  136  A    between atoms: _372  and  _373
REMARK  137  A    between atoms: _372  and  _375
REMARK  138  A    between atoms: _375  and  _376
REMARK  139  A    between atoms: _379  and  _381
REMARK  140  A    between atoms: _381  and  _382
REMARK  141  A    between atoms: _381  and  _384
REMARK  142  A    between atoms: _384  and  _385
REMARK  143  A    between atoms: _388  and  _390
REMARK  144  A    between atoms: _390  and  _391
REMARK  145  A    between atoms: _390  and  _393
REMARK  146  A    between atoms: _395  and  _397
REMARK  147  A    between atoms: _397  and  _398
REMARK  148  A    between atoms: _397  and  _400
REMARK  149  A    between atoms: _403  and  _405
REMARK  150  A    between atoms: _405  and  _406
REMARK  151  A    between atoms: _405  and  _408
REMARK  152  A    between atoms: _408  and  _409
REMARK  153  A    between atoms: _419  and  _421
REMARK  154  A    between atoms: _421  and  _422
REMARK  155  A    between atoms: _421  and  _424
REMARK  156  A    between atoms: _424  and  _425
REMARK  157  A    between atoms: _430  and  _432
REMARK  158  A    between atoms: _432  and  _433
REMARK  159  A    between atoms: _432  and  _435
REMARK  160  A    between atoms: _435  and  _436
REMARK  161  A    between atoms: _436  and  _437
REMARK  162  A    between atoms: _437  and  _438
REMARK                            x       y       z     vdW  Elec       q    Type
REMARK                         _______ _______ _______ _____ _____    ______ ____
ROOT
ATOM      1  O   HOH     1      -2.632  -3.019  11.664  0.00  0.00    +0.000 OA
ENDROOT
TORSDOF 0
REMARK  Name = ../refined-set-2016/1g48/1g48_pocket.pdb
REMARK  162 active torsions:
REMARK  status: ('A' for Active; 'I' for Inactive)
REMARK    1  A    between atoms: _1  and  _3
REMARK    2  A    between atoms: _3  and  _4
REMARK    3  A    between atoms: _3  and  _6
REMARK    4  A    between atoms: _6  and  _7
REMARK    5  A    between atoms: _17  and  _19
REMARK    6  A    between atoms: _19  and  _20
REMARK    7  A    between atoms: _19  and  _22
REMARK    8  A    between atoms: _22  and  _23
REMARK    9  A    between atoms: _28  and  _29
REMARK   10  A    between atoms: _31  and  _33
REMARK   11  A    between atoms: _33  and  _34
REMARK   12  A    between atoms: _33  and  _36
REMARK   13  A    between atoms: _36  and  _37
REMARK   14  A    between atoms: _43  and  _45
REMARK   15  A    between atoms: _45  and  _46
REMARK   16  A    between atoms: _45  and  _48
REMARK   17  A    between atoms: _48  and  _49
REMARK   18  A    between atoms: _52  and  _53
REMARK   19  A    between atoms: _58  and  _60
REMARK   20  A    between atoms: _60  and  _61
REMARK   21  A    between atoms: _60  and  _63
REMARK   22  A    between atoms: _63  and  _64
REMARK   23  A    between atoms: _69  and  _71
REMARK   24  A    between atoms: _71  and  _72
REMARK   25  A    between atoms: _75  and  _77
REMARK   26  A    between atoms: _77  and  _78
REMARK   27  A    between atoms: _77  and  _80
REMARK   28  A    between atoms: _80  and  _81
REMARK   29  A    between atoms: _86  and  _88
REMARK   30  A    between atoms: _88  and  _89
REMARK   31  A    between atoms: _88  and  _91
REMARK   32  A    between atoms: _91  and  _92
REMARK   33  A    between atoms: _95  and  _97
REMARK   34  A    between atoms: _97  and  _98
REMARK   35  A    between atoms: _97  and  _100
REMARK   36  A    between atoms: _100  and  _101
REMARK   37  A    between atoms: _101  and  _102
REMARK   38  A    between atoms: _107  and  _109
REMARK   39  A    between atoms: _109  and  _110
REMARK   40  A    between atoms: _109  and  _112
REMARK   41  A    between atoms: _112  and  _113
REMARK   42  A    between atoms: _119  and  _121
REMARK   43  A    between atoms: _132  and  _135
REMARK   44  A    between atoms: _135  and  _136
REMARK   45  A    between atoms: _144  and  _145
REMARK   46  A    between atoms: _153  and  _155
REMARK   47  A    between atoms: _155  and  _156
REMARK   48  A    between atoms: _155  and  _158
REMARK   49  A    between atoms: _158  and  _159
REMARK   50  A    between atoms: _159  and  _160
REMARK   51  A    between atoms: _163  and  _165
REMARK   52  A    between atoms: _165  and  _166
REMARK   53  A    between atoms: _165  and  _168
REMARK   54  A    between atoms: _168  and  _169
REMARK   55  A    between atoms: _174  and  _176
REMARK   56  A    between atoms: _176  and  _177
REMARK   57  A    between atoms: _176  and  _179
REMARK   58  A    between atoms: _179  and  _180
REMARK   59  A    between atoms: _180  and  _181
REMARK   60  A    between atoms: _184  and  _186
REMARK   61  A    between atoms: _186  and  _187
REMARK   62  A    between atoms: _186  and  _189
REMARK   63  A    between atoms: _189  and  _190
REMARK   64  A    between atoms: _193  and  _195
REMARK   65  A    between atoms: _195  and  _196
REMARK   66  A    between atoms: _195  and  _198
REMARK   67  A    between atoms: _198  and  _199
REMARK   68  A    between atoms: _200  and  ZN_447
REMARK   69  A    between atoms: _204  and  _206
REMARK   70  A    between atoms: _206  and  _207
REMARK   71  A    between atoms: _206  and  _209
REMARK   72  A    between atoms: _209  and  _210
REMARK   73  A    between atoms: _213  and  _215
REMARK   74  A    between atoms: _215  and  _216
REMARK   75  A    between atoms: _215  and  _218
REMARK   76  A    between atoms: _221  and  _223
REMARK   77  A    between atoms: _223  and  _224
REMARK   78  A    between atoms: _223  and  _226
REMARK   79  A    between atoms: _226  and  _227
REMARK   80  A    between atoms: _232  and  _234
REMARK   81  A    between atoms: _234  and  _235
REMARK   82  A    between atoms: _234  and  _237
REMARK   83  A    between atoms: _240  and  _242
REMARK   84  A    between atoms: _242  and  _243
REMARK   85  A    between atoms: _245  and  _247
REMARK   86  A    between atoms: _247  and  _248
REMARK   87  A    between atoms: _247  and  _250
REMARK   88  A    between atoms: _250  and  _251
REMARK   89  A    between atoms: _251  and  _252
REMARK   90  A    between atoms: _252  and  _253
REMARK   91  A    between atoms: _253  and  _254
REMARK   92  A    between atoms: _258  and  _260
REMARK   93  A    between atoms: _260  and  _261
REMARK   94  A    between atoms: _264  and  _266
REMARK   95  A    between atoms: _266  and  _267
REMARK   96  A    between atoms: _266  and  _269
REMARK   97  A    between atoms: _272  and  _274
REMARK   98  A    between atoms: _274  and  _275
REMARK   99  A    between atoms: _274  and  _277
REMARK  100  A    between atoms: _277  and  _278
REMARK  101  A    between atoms: _278  and  _279
REMARK  102  A    between atoms: _284  and  _286
REMARK  103  A    between atoms: _286  and  _287
REMARK  104  A    between atoms: _286  and  _289
REMARK  105  A    between atoms: _289  and  _290
REMARK  106  A    between atoms: _293  and  _295
REMARK  107  A    between atoms: _295  and  _296
REMARK  108  A    between atoms: _299  and  _301
REMARK  109  A    between atoms: _301  and  _302
REMARK  110  A    between atoms: _301  and  _304
REMARK  111  A    between atoms: _307  and  _309
REMARK  112  A    between atoms: _309  and  _310
REMARK  113  A    between atoms: _309  and  _312
REMARK  114  A    between atoms: _312  and  _313
REMARK  115  A    between atoms: _316  and  _318
REMARK  116  A    between atoms: _318  and  _319
REMARK  117  A    between atoms: _321  and  _323
REMARK  118  A    between atoms: _323  and  _324
REMARK  119  A    between atoms: _323  and  _326
REMARK  120  A    between atoms: _326  and  _327
REMARK  121  A    between atoms: _329  and  _331
REMARK  122  A    between atoms: _331  and  _332
REMARK  123  A    between atoms: _331  and  _334
REMARK  124  A    between atoms: _334  and  _335
REMARK  125  A    between atoms: _338  and  _340
REMARK  126  A    between atoms: _340  and  _341
REMARK  127  A    between atoms: _340  and  _343
REMARK  128  A    between atoms: _343  and  _344
REMARK  129  A    between atoms: _347  and  _349
REMARK  130  A    between atoms: _349  and  _350
REMARK  131  A    between atoms: _349  and  _352
REMARK  132  A    between atoms: _352  and  _353
REMARK  133  A    between atoms: _357  and  _358
REMARK  134  A    between atoms: _364  and  _365
REMARK  135  A    between atoms: _370  and  _372
REMARK  136  A    between atoms: _372  and  _373
REMARK  137  A    between atoms: _372  and  _375
REMARK  138  A    between atoms: _375  and  _376
REMARK  139  A    between atoms: _379  and  _381
REMARK  140  A    between atoms: _381  and  _382
REMARK  141  A    between atoms: _381  and  _384
REMARK  142  A    between atoms: _384  and  _385
REMARK  143  A    between atoms: _388  and  _390
REMARK  144  A    between atoms: _390  and  _391
REMARK  145  A    between atoms: _390  and  _393
REMARK  146  A    between atoms: _395  and  _397
REMARK  147  A    between atoms: _397  and  _398
REMARK  148  A    between atoms: _397  and  _400
REMARK  149  A    between atoms: _403  and  _405
REMARK  150  A    between atoms: _405  and  _406
REMARK  151  A    between atoms: _405  and  _408
REMARK  152  A    between atoms: _408  and  _409
REMARK  153  A    between atoms: _419  and  _421
REMARK  154  A    between atoms: _421  and  _422
REMARK  155  A    between atoms: _421  and  _424
REMARK  156  A    between atoms: _424  and  _425
REMARK  157  A    between atoms: _430  and  _432
REMARK  158  A    between atoms: _432  and  _433
REMARK  159  A    between atoms: _432  and  _435
REMARK  160  A    between atoms: _435  and  _436
REMARK  161  A    between atoms: _436  and  _437
REMARK  162  A    between atoms: _437  and  _438
REMARK                            x       y       z     vdW  Elec       q    Type
REMARK                         _______ _______ _______ _____ _____    ______ ____
ROOT
ATOM      1  O   HOH     1       5.260   7.312  20.153  0.00  0.00    +0.000 OA
ENDROOT
TORSDOF 0
REMARK  Name = ../refined-set-2016/1g48/1g48_pocket.pdb
REMARK  162 active torsions:
REMARK  status: ('A' for Active; 'I' for Inactive)
REMARK    1  A    between atoms: _1  and  _3
REMARK    2  A    between atoms: _3  and  _4
REMARK    3  A    between atoms: _3  and  _6
REMARK    4  A    between atoms: _6  and  _7
REMARK    5  A    between atoms: _17  and  _19
REMARK    6  A    between atoms: _19  and  _20
REMARK    7  A    between atoms: _19  and  _22
REMARK    8  A    between atoms: _22  and  _23
REMARK    9  A    between atoms: _28  and  _29
REMARK   10  A    between atoms: _31  and  _33
REMARK   11  A    between atoms: _33  and  _34
REMARK   12  A    between atoms: _33  and  _36
REMARK   13  A    between atoms: _36  and  _37
REMARK   14  A    between atoms: _43  and  _45
REMARK   15  A    between atoms: _45  and  _46
REMARK   16  A    between atoms: _45  and  _48
REMARK   17  A    between atoms: _48  and  _49
REMARK   18  A    between atoms: _52  and  _53
REMARK   19  A    between atoms: _58  and  _60
REMARK   20  A    between atoms: _60  and  _61
REMARK   21  A    between atoms: _60  and  _63
REMARK   22  A    between atoms: _63  and  _64
REMARK   23  A    between atoms: _69  and  _71
REMARK   24  A    between atoms: _71  and  _72
REMARK   25  A    between atoms: _75  and  _77
REMARK   26  A    between atoms: _77  and  _78
REMARK   27  A    between atoms: _77  and  _80
REMARK   28  A    between atoms: _80  and  _81
REMARK   29  A    between atoms: _86  and  _88
REMARK   30  A    between atoms: _88  and  _89
REMARK   31  A    between atoms: _88  and  _91
REMARK   32  A    between atoms: _91  and  _92
REMARK   33  A    between atoms: _95  and  _97
REMARK   34  A    between atoms: _97  and  _98
REMARK   35  A    between atoms: _97  and  _100
REMARK   36  A    between atoms: _100  and  _101
REMARK   37  A    between atoms: _101  and  _102
REMARK   38  A    between atoms: _107  and  _109
REMARK   39  A    between atoms: _109  and  _110
REMARK   40  A    between atoms: _109  and  _112
REMARK   41  A    between atoms: _112  and  _113
REMARK   42  A    between atoms: _119  and  _121
REMARK   43  A    between atoms: _132  and  _135
REMARK   44  A    between atoms: _135  and  _136
REMARK   45  A    between atoms: _144  and  _145
REMARK   46  A    between atoms: _153  and  _155
REMARK   47  A    between atoms: _155  and  _156
REMARK   48  A    between atoms: _155  and  _158
REMARK   49  A    between atoms: _158  and  _159
REMARK   50  A    between atoms: _159  and  _160
REMARK   51  A    between atoms: _163  and  _165
REMARK   52  A    between atoms: _165  and  _166
REMARK   53  A    between atoms: _165  and  _168
REMARK   54  A    between atoms: _168  and  _169
REMARK   55  A    between atoms: _174  and  _176
REMARK   56  A    between atoms: _176  and  _177
REMARK   57  A    between atoms: _176  and  _179
REMARK   58  A    between atoms: _179  and  _180
REMARK   59  A    between atoms: _180  and  _181
REMARK   60  A    between atoms: _184  and  _186
REMARK   61  A    between atoms: _186  and  _187
REMARK   62  A    between atoms: _186  and  _189
REMARK   63  A    between atoms: _189  and  _190
REMARK   64  A    between atoms: _193  and  _195
REMARK   65  A    between atoms: _195  and  _196
REMARK   66  A    between atoms: _195  and  _198
REMARK   67  A    between atoms: _198  and  _199
REMARK   68  A    between atoms: _200  and  ZN_447
REMARK   69  A    between atoms: _204  and  _206
REMARK   70  A    between atoms: _206  and  _207
REMARK   71  A    between atoms: _206  and  _209
REMARK   72  A    between atoms: _209  and  _210
REMARK   73  A    between atoms: _213  and  _215
REMARK   74  A    between atoms: _215  and  _216
REMARK   75  A    between atoms: _215  and  _218
REMARK   76  A    between atoms: _221  and  _223
REMARK   77  A    between atoms: _223  and  _224
REMARK   78  A    between atoms: _223  and  _226
REMARK   79  A    between atoms: _226  and  _227
REMARK   80  A    between atoms: _232  and  _234
REMARK   81  A    between atoms: _234  and  _235
REMARK   82  A    between atoms: _234  and  _237
REMARK   83  A    between atoms: _240  and  _242
REMARK   84  A    between atoms: _242  and  _243
REMARK   85  A    between atoms: _245  and  _247
REMARK   86  A    between atoms: _247  and  _248
REMARK   87  A    between atoms: _247  and  _250
REMARK   88  A    between atoms: _250  and  _251
REMARK   89  A    between atoms: _251  and  _252
REMARK   90  A    between atoms: _252  and  _253
REMARK   91  A    between atoms: _253  and  _254
REMARK   92  A    between atoms: _258  and  _260
REMARK   93  A    between atoms: _260  and  _261
REMARK   94  A    between atoms: _264  and  _266
REMARK   95  A    between atoms: _266  and  _267
REMARK   96  A    between atoms: _266  and  _269
REMARK   97  A    between atoms: _272  and  _274
REMARK   98  A    between atoms: _274  and  _275
REMARK   99  A    between atoms: _274  and  _277
REMARK  100  A    between atoms: _277  and  _278
REMARK  101  A    between atoms: _278  and  _279
REMARK  102  A    between atoms: _284  and  _286
REMARK  103  A    between atoms: _286  and  _287
REMARK  104  A    between atoms: _286  and  _289
REMARK  105  A    between atoms: _289  and  _290
REMARK  106  A    between atoms: _293  and  _295
REMARK  107  A    between atoms: _295  and  _296
REMARK  108  A    between atoms: _299  and  _301
REMARK  109  A    between atoms: _301  and  _302
REMARK  110  A    between atoms: _301  and  _304
REMARK  111  A    between atoms: _307  and  _309
REMARK  112  A    between atoms: _309  and  _310
REMARK  113  A    between atoms: _309  and  _312
REMARK  114  A    between atoms: _312  and  _313
REMARK  115  A    between atoms: _316  and  _318
REMARK  116  A    between atoms: _318  and  _319
REMARK  117  A    between atoms: _321  and  _323
REMARK  118  A    between atoms: _323  and  _324
REMARK  119  A    between atoms: _323  and  _326
REMARK  120  A    between atoms: _326  and  _327
REMARK  121  A    between atoms: _329  and  _331
REMARK  122  A    between atoms: _331  and  _332
REMARK  123  A    between atoms: _331  and  _334
REMARK  124  A    between atoms: _334  and  _335
REMARK  125  A    between atoms: _338  and  _340
REMARK  126  A    between atoms: _340  and  _341
REMARK  127  A    between atoms: _340  and  _343
REMARK  128  A    between atoms: _343  and  _344
REMARK  129  A    between atoms: _347  and  _349
REMARK  130  A    between atoms: _349  and  _350
REMARK  131  A    between atoms: _349  and  _352
REMARK  132  A    between atoms: _352  and  _353
REMARK  133  A    between atoms: _357  and  _358
REMARK  134  A    between atoms: _364  and  _365
REMARK  135  A    between atoms: _370  and  _372
REMARK  136  A    between atoms: _372  and  _373
REMARK  137  A    between atoms: _372  and  _375
REMARK  138  A    between atoms: _375  and  _376
REMARK  139  A    between atoms: _379  and  _381
REMARK  140  A    between atoms: _381  and  _382
REMARK  141  A    between atoms: _381  and  _384
REMARK  142  A    between atoms: _384  and  _385
REMARK  143  A    between atoms: _388  and  _390
REMARK  144  A    between atoms: _390  and  _391
REMARK  145  A    between atoms: _390  and  _393
REMARK  146  A    between atoms: _395  and  _397
REMARK  147  A    between atoms: _397  and  _398
REMARK  148  A    between atoms: _397  and  _400
REMARK  149  A    between atoms: _403  and  _405
REMARK  150  A    between atoms: _405  and  _406
REMARK  151  A    between atoms: _405  and  _408
REMARK  152  A    between atoms: _408  and  _409
REMARK  153  A    between atoms: _419  and  _421
REMARK  154  A    between atoms: _421  and  _422
REMARK  155  A    between atoms: _421  and  _424
REMARK  156  A    between atoms: _424  and  _425
REMARK  157  A    between atoms: _430  and  _432
REMARK  158  A    between atoms: _432  and  _433
REMARK  159  A    between atoms: _432  and  _435
REMARK  160  A    between atoms: _435  and  _436
REMARK  161  A    between atoms: _436  and  _437
REMARK  162  A    between atoms: _437  and  _438
REMARK                            x       y       z     vdW  Elec       q    Type
REMARK                         _______ _______ _______ _____ _____    ______ ____
ROOT
ATOM      1  O   HOH     1      -7.027   6.162   6.967  0.00  0.00    +0.000 OA
ENDROOT
TORSDOF 0
REMARK  Name = ../refined-set-2016/1g48/1g48_pocket.pdb
REMARK  162 active torsions:
REMARK  status: ('A' for Active; 'I' for Inactive)
REMARK    1  A    between atoms: _1  and  _3
REMARK    2  A    between atoms: _3  and  _4
REMARK    3  A    between atoms: _3  and  _6
REMARK    4  A    between atoms: _6  and  _7
REMARK    5  A    between atoms: _17  and  _19
REMARK    6  A    between atoms: _19  and  _20
REMARK    7  A    between atoms: _19  and  _22
REMARK    8  A    between atoms: _22  and  _23
REMARK    9  A    between atoms: _28  and  _29
REMARK   10  A    between atoms: _31  and  _33
REMARK   11  A    between atoms: _33  and  _34
REMARK   12  A    between atoms: _33  and  _36
REMARK   13  A    between atoms: _36  and  _37
REMARK   14  A    between atoms: _43  and  _45
REMARK   15  A    between atoms: _45  and  _46
REMARK   16  A    between atoms: _45  and  _48
REMARK   17  A    between atoms: _48  and  _49
REMARK   18  A    between atoms: _52  and  _53
REMARK   19  A    between atoms: _58  and  _60
REMARK   20  A    between atoms: _60  and  _61
REMARK   21  A    between atoms: _60  and  _63
REMARK   22  A    between atoms: _63  and  _64
REMARK   23  A    between atoms: _69  and  _71
REMARK   24  A    between atoms: _71  and  _72
REMARK   25  A    between atoms: _75  and  _77
REMARK   26  A    between atoms: _77  and  _78
REMARK   27  A    between atoms: _77  and  _80
REMARK   28  A    between atoms: _80  and  _81
REMARK   29  A    between atoms: _86  and  _88
REMARK   30  A    between atoms: _88  and  _89
REMARK   31  A    between atoms: _88  and  _91
REMARK   32  A    between atoms: _91  and  _92
REMARK   33  A    between atoms: _95  and  _97
REMARK   34  A    between atoms: _97  and  _98
REMARK   35  A    between atoms: _97  and  _100
REMARK   36  A    between atoms: _100  and  _101
REMARK   37  A    between atoms: _101  and  _102
REMARK   38  A    between atoms: _107  and  _109
REMARK   39  A    between atoms: _109  and  _110
REMARK   40  A    between atoms: _109  and  _112
REMARK   41  A    between atoms: _112  and  _113
REMARK   42  A    between atoms: _119  and  _121
REMARK   43  A    between atoms: _132  and  _135
REMARK   44  A    between atoms: _135  and  _136
REMARK   45  A    between atoms: _144  and  _145
REMARK   46  A    between atoms: _153  and  _155
REMARK   47  A    between atoms: _155  and  _156
REMARK   48  A    between atoms: _155  and  _158
REMARK   49  A    between atoms: _158  and  _159
REMARK   50  A    between atoms: _159  and  _160
REMARK   51  A    between atoms: _163  and  _165
REMARK   52  A    between atoms: _165  and  _166
REMARK   53  A    between atoms: _165  and  _168
REMARK   54  A    between atoms: _168  and  _169
REMARK   55  A    between atoms: _174  and  _176
REMARK   56  A    between atoms: _176  and  _177
REMARK   57  A    between atoms: _176  and  _179
REMARK   58  A    between atoms: _179  and  _180
REMARK   59  A    between atoms: _180  and  _181
REMARK   60  A    between atoms: _184  and  _186
REMARK   61  A    between atoms: _186  and  _187
REMARK   62  A    between atoms: _186  and  _189
REMARK   63  A    between atoms: _189  and  _190
REMARK   64  A    between atoms: _193  and  _195
REMARK   65  A    between atoms: _195  and  _196
REMARK   66  A    between atoms: _195  and  _198
REMARK   67  A    between atoms: _198  and  _199
REMARK   68  A    between atoms: _200  and  ZN_447
REMARK   69  A    between atoms: _204  and  _206
REMARK   70  A    between atoms: _206  and  _207
REMARK   71  A    between atoms: _206  and  _209
REMARK   72  A    between atoms: _209  and  _210
REMARK   73  A    between atoms: _213  and  _215
REMARK   74  A    between atoms: _215  and  _216
REMARK   75  A    between atoms: _215  and  _218
REMARK   76  A    between atoms: _221  and  _223
REMARK   77  A    between atoms: _223  and  _224
REMARK   78  A    between atoms: _223  and  _226
REMARK   79  A    between atoms: _226  and  _227
REMARK   80  A    between atoms: _232  and  _234
REMARK   81  A    between atoms: _234  and  _235
REMARK   82  A    between atoms: _234  and  _237
REMARK   83  A    between atoms: _240  and  _242
REMARK   84  A    between atoms: _242  and  _243
REMARK   85  A    between atoms: _245  and  _247
REMARK   86  A    between atoms: _247  and  _248
REMARK   87  A    between atoms: _247  and  _250
REMARK   88  A    between atoms: _250  and  _251
REMARK   89  A    between atoms: _251  and  _252
REMARK   90  A    between atoms: _252  and  _253
REMARK   91  A    between atoms: _253  and  _254
REMARK   92  A    between atoms: _258  and  _260
REMARK   93  A    between atoms: _260  and  _261
REMARK   94  A    between atoms: _264  and  _266
REMARK   95  A    between atoms: _266  and  _267
REMARK   96  A    between atoms: _266  and  _269
REMARK   97  A    between atoms: _272  and  _274
REMARK   98  A    between atoms: _274  and  _275
REMARK   99  A    between atoms: _274  and  _277
REMARK  100  A    between atoms: _277  and  _278
REMARK  101  A    between atoms: _278  and  _279
REMARK  102  A    between atoms: _284  and  _286
REMARK  103  A    between atoms: _286  and  _287
REMARK  104  A    between atoms: _286  and  _289
REMARK  105  A    between atoms: _289  and  _290
REMARK  106  A    between atoms: _293  and  _295
REMARK  107  A    between atoms: _295  and  _296
REMARK  108  A    between atoms: _299  and  _301
REMARK  109  A    between atoms: _301  and  _302
REMARK  110  A    between atoms: _301  and  _304
REMARK  111  A    between atoms: _307  and  _309
REMARK  112  A    between atoms: _309  and  _310
REMARK  113  A    between atoms: _309  and  _312
REMARK  114  A    between atoms: _312  and  _313
REMARK  115  A    between atoms: _316  and  _318
REMARK  116  A    between atoms: _318  and  _319
REMARK  117  A    between atoms: _321  and  _323
REMARK  118  A    between atoms: _323  and  _324
REMARK  119  A    between atoms: _323  and  _326
REMARK  120  A    between atoms: _326  and  _327
REMARK  121  A    between atoms: _329  and  _331
REMARK  122  A    between atoms: _331  and  _332
REMARK  123  A    between atoms: _331  and  _334
REMARK  124  A    between atoms: _334  and  _335
REMARK  125  A    between atoms: _338  and  _340
REMARK  126  A    between atoms: _340  and  _341
REMARK  127  A    between atoms: _340  and  _343
REMARK  128  A    between atoms: _343  and  _344
REMARK  129  A    between atoms: _347  and  _349
REMARK  130  A    between atoms: _349  and  _350
REMARK  131  A    between atoms: _349  and  _352
REMARK  132  A    between atoms: _352  and  _353
REMARK  133  A    between atoms: _357  and  _358
REMARK  134  A    between atoms: _364  and  _365
REMARK  135  A    between atoms: _370  and  _372
REMARK  136  A    between atoms: _372  and  _373
REMARK  137  A    between atoms: _372  and  _375
REMARK  138  A    between atoms: _375  and  _376
REMARK  139  A    between atoms: _379  and  _381
REMARK  140  A    between atoms: _381  and  _382
REMARK  141  A    between atoms: _381  and  _384
REMARK  142  A    between atoms: _384  and  _385
REMARK  143  A    between atoms: _388  and  _390
REMARK  144  A    between atoms: _390  and  _391
REMARK  145  A    between atoms: _390  and  _393
REMARK  146  A    between atoms: _395  and  _397
REMARK  147  A    between atoms: _397  and  _398
REMARK  148  A    between atoms: _397  and  _400
REMARK  149  A    between atoms: _403  and  _405
REMARK  150  A    between atoms: _405  and  _406
REMARK  151  A    between atoms: _405  and  _408
REMARK  152  A    between atoms: _408  and  _409
REMARK  153  A    between atoms: _419  and  _421
REMARK  154  A    between atoms: _421  and  _422
REMARK  155  A    between atoms: _421  and  _424
REMARK  156  A    between atoms: _424  and  _425
REMARK  157  A    between atoms: _430  and  _432
REMARK  158  A    between atoms: _432  and  _433
REMARK  159  A    between atoms: _432  and  _435
REMARK  160  A    between atoms: _435  and  _436
REMARK  161  A    between atoms: _436  and  _437
REMARK  162  A    between atoms: _437  and  _438
REMARK                            x       y       z     vdW  Elec       q    Type
REMARK                         _______ _______ _______ _____ _____    ______ ____
ROOT
ATOM      1  O   HOH     1      -0.843   4.029  13.533  0.00  0.00    +0.000 OA
ENDROOT
TORSDOF 0
REMARK  Name = ../refined-set-2016/1g48/1g48_pocket.pdb
REMARK  162 active torsions:
REMARK  status: ('A' for Active; 'I' for Inactive)
REMARK    1  A    between atoms: _1  and  _3
REMARK    2  A    between atoms: _3  and  _4
REMARK    3  A    between atoms: _3  and  _6
REMARK    4  A    between atoms: _6  and  _7
REMARK    5  A    between atoms: _17  and  _19
REMARK    6  A    between atoms: _19  and  _20
REMARK    7  A    between atoms: _19  and  _22
REMARK    8  A    between atoms: _22  and  _23
REMARK    9  A    between atoms: _28  and  _29
REMARK   10  A    between atoms: _31  and  _33
REMARK   11  A    between atoms: _33  and  _34
REMARK   12  A    between atoms: _33  and  _36
REMARK   13  A    between atoms: _36  and  _37
REMARK   14  A    between atoms: _43  and  _45
REMARK   15  A    between atoms: _45  and  _46
REMARK   16  A    between atoms: _45  and  _48
REMARK   17  A    between atoms: _48  and  _49
REMARK   18  A    between atoms: _52  and  _53
REMARK   19  A    between atoms: _58  and  _60
REMARK   20  A    between atoms: _60  and  _61
REMARK   21  A    between atoms: _60  and  _63
REMARK   22  A    between atoms: _63  and  _64
REMARK   23  A    between atoms: _69  and  _71
REMARK   24  A    between atoms: _71  and  _72
REMARK   25  A    between atoms: _75  and  _77
REMARK   26  A    between atoms: _77  and  _78
REMARK   27  A    between atoms: _77  and  _80
REMARK   28  A    between atoms: _80  and  _81
REMARK   29  A    between atoms: _86  and  _88
REMARK   30  A    between atoms: _88  and  _89
REMARK   31  A    between atoms: _88  and  _91
REMARK   32  A    between atoms: _91  and  _92
REMARK   33  A    between atoms: _95  and  _97
REMARK   34  A    between atoms: _97  and  _98
REMARK   35  A    between atoms: _97  and  _100
REMARK   36  A    between atoms: _100  and  _101
REMARK   37  A    between atoms: _101  and  _102
REMARK   38  A    between atoms: _107  and  _109
REMARK   39  A    between atoms: _109  and  _110
REMARK   40  A    between atoms: _109  and  _112
REMARK   41  A    between atoms: _112  and  _113
REMARK   42  A    between atoms: _119  and  _121
REMARK   43  A    between atoms: _132  and  _135
REMARK   44  A    between atoms: _135  and  _136
REMARK   45  A    between atoms: _144  and  _145
REMARK   46  A    between atoms: _153  and  _155
REMARK   47  A    between atoms: _155  and  _156
REMARK   48  A    between atoms: _155  and  _158
REMARK   49  A    between atoms: _158  and  _159
REMARK   50  A    between atoms: _159  and  _160
REMARK   51  A    between atoms: _163  and  _165
REMARK   52  A    between atoms: _165  and  _166
REMARK   53  A    between atoms: _165  and  _168
REMARK   54  A    between atoms: _168  and  _169
REMARK   55  A    between atoms: _174  and  _176
REMARK   56  A    between atoms: _176  and  _177
REMARK   57  A    between atoms: _176  and  _179
REMARK   58  A    between atoms: _179  and  _180
REMARK   59  A    between atoms: _180  and  _181
REMARK   60  A    between atoms: _184  and  _186
REMARK   61  A    between atoms: _186  and  _187
REMARK   62  A    between atoms: _186  and  _189
REMARK   63  A    between atoms: _189  and  _190
REMARK   64  A    between atoms: _193  and  _195
REMARK   65  A    between atoms: _195  and  _196
REMARK   66  A    between atoms: _195  and  _198
REMARK   67  A    between atoms: _198  and  _199
REMARK   68  A    between atoms: _200  and  ZN_447
REMARK   69  A    between atoms: _204  and  _206
REMARK   70  A    between atoms: _206  and  _207
REMARK   71  A    between atoms: _206  and  _209
REMARK   72  A    between atoms: _209  and  _210
REMARK   73  A    between atoms: _213  and  _215
REMARK   74  A    between atoms: _215  and  _216
REMARK   75  A    between atoms: _215  and  _218
REMARK   76  A    between atoms: _221  and  _223
REMARK   77  A    between atoms: _223  and  _224
REMARK   78  A    between atoms: _223  and  _226
REMARK   79  A    between atoms: _226  and  _227
REMARK   80  A    between atoms: _232  and  _234
REMARK   81  A    between atoms: _234  and  _235
REMARK   82  A    between atoms: _234  and  _237
REMARK   83  A    between atoms: _240  and  _242
REMARK   84  A    between atoms: _242  and  _243
REMARK   85  A    between atoms: _245  and  _247
REMARK   86  A    between atoms: _247  and  _248
REMARK   87  A    between atoms: _247  and  _250
REMARK   88  A    between atoms: _250  and  _251
REMARK   89  A    between atoms: _251  and  _252
REMARK   90  A    between atoms: _252  and  _253
REMARK   91  A    between atoms: _253  and  _254
REMARK   92  A    between atoms: _258  and  _260
REMARK   93  A    between atoms: _260  and  _261
REMARK   94  A    between atoms: _264  and  _266
REMARK   95  A    between atoms: _266  and  _267
REMARK   96  A    between atoms: _266  and  _269
REMARK   97  A    between atoms: _272  and  _274
REMARK   98  A    between atoms: _274  and  _275
REMARK   99  A    between atoms: _274  and  _277
REMARK  100  A    between atoms: _277  and  _278
REMARK  101  A    between atoms: _278  and  _279
REMARK  102  A    between atoms: _284  and  _286
REMARK  103  A    between atoms: _286  and  _287
REMARK  104  A    between atoms: _286  and  _289
REMARK  105  A    between atoms: _289  and  _290
REMARK  106  A    between atoms: _293  and  _295
REMARK  107  A    between atoms: _295  and  _296
REMARK  108  A    between atoms: _299  and  _301
REMARK  109  A    between atoms: _301  and  _302
REMARK  110  A    between atoms: _301  and  _304
REMARK  111  A    between atoms: _307  and  _309
REMARK  112  A    between atoms: _309  and  _310
REMARK  113  A    between atoms: _309  and  _312
REMARK  114  A    between atoms: _312  and  _313
REMARK  115  A    between atoms: _316  and  _318
REMARK  116  A    between atoms: _318  and  _319
REMARK  117  A    between atoms: _321  and  _323
REMARK  118  A    between atoms: _323  and  _324
REMARK  119  A    between atoms: _323  and  _326
REMARK  120  A    between atoms: _326  and  _327
REMARK  121  A    between atoms: _329  and  _331
REMARK  122  A    between atoms: _331  and  _332
REMARK  123  A    between atoms: _331  and  _334
REMARK  124  A    between atoms: _334  and  _335
REMARK  125  A    between atoms: _338  and  _340
REMARK  126  A    between atoms: _340  and  _341
REMARK  127  A    between atoms: _340  and  _343
REMARK  128  A    between atoms: _343  and  _344
REMARK  129  A    between atoms: _347  and  _349
REMARK  130  A    between atoms: _349  and  _350
REMARK  131  A    between atoms: _349  and  _352
REMARK  132  A    between atoms: _352  and  _353
REMARK  133  A    between atoms: _357  and  _358
REMARK  134  A    between atoms: _364  and  _365
REMARK  135  A    between atoms: _370  and  _372
REMARK  136  A    between atoms: _372  and  _373
REMARK  137  A    between atoms: _372  and  _375
REMARK  138  A    between atoms: _375  and  _376
REMARK  139  A    between atoms: _379  and  _381
REMARK  140  A    between atoms: _381  and  _382
REMARK  141  A    between atoms: _381  and  _384
REMARK  142  A    between atoms: _384  and  _385
REMARK  143  A    between atoms: _388  and  _390
REMARK  144  A    between atoms: _390  and  _391
REMARK  145  A    between atoms: _390  and  _393
REMARK  146  A    between atoms: _395  and  _397
REMARK  147  A    between atoms: _397  and  _398
REMARK  148  A    between atoms: _397  and  _400
REMARK  149  A    between atoms: _403  and  _405
REMARK  150  A    between atoms: _405  and  _406
REMARK  151  A    between atoms: _405  and  _408
REMARK  152  A    between atoms: _408  and  _409
REMARK  153  A    between atoms: _419  and  _421
REMARK  154  A    between atoms: _421  and  _422
REMARK  155  A    between atoms: _421  and  _424
REMARK  156  A    between atoms: _424  and  _425
REMARK  157  A    between atoms: _430  and  _432
REMARK  158  A    between atoms: _432  and  _433
REMARK  159  A    between atoms: _432  and  _435
REMARK  160  A    between atoms: _435  and  _436
REMARK  161  A    between atoms: _436  and  _437
REMARK  162  A    between atoms: _437  and  _438
REMARK                            x       y       z     vdW  Elec       q    Type
REMARK                         _______ _______ _______ _____ _____    ______ ____
ROOT
ATOM      1  O   HOH     1      -1.366   0.877   9.627  0.00  0.00    +0.000 OA
ENDROOT
TORSDOF 0
REMARK  Name = ../refined-set-2016/1g48/1g48_pocket.pdb
REMARK  162 active torsions:
REMARK  status: ('A' for Active; 'I' for Inactive)
REMARK    1  A    between atoms: _1  and  _3
REMARK    2  A    between atoms: _3  and  _4
REMARK    3  A    between atoms: _3  and  _6
REMARK    4  A    between atoms: _6  and  _7
REMARK    5  A    between atoms: _17  and  _19
REMARK    6  A    between atoms: _19  and  _20
REMARK    7  A    between atoms: _19  and  _22
REMARK    8  A    between atoms: _22  and  _23
REMARK    9  A    between atoms: _28  and  _29
REMARK   10  A    between atoms: _31  and  _33
REMARK   11  A    between atoms: _33  and  _34
REMARK   12  A    between atoms: _33  and  _36
REMARK   13  A    between atoms: _36  and  _37
REMARK   14  A    between atoms: _43  and  _45
REMARK   15  A    between atoms: _45  and  _46
REMARK   16  A    between atoms: _45  and  _48
REMARK   17  A    between atoms: _48  and  _49
REMARK   18  A    between atoms: _52  and  _53
REMARK   19  A    between atoms: _58  and  _60
REMARK   20  A    between atoms: _60  and  _61
REMARK   21  A    between atoms: _60  and  _63
REMARK   22  A    between atoms: _63  and  _64
REMARK   23  A    between atoms: _69  and  _71
REMARK   24  A    between atoms: _71  and  _72
REMARK   25  A    between atoms: _75  and  _77
REMARK   26  A    between atoms: _77  and  _78
REMARK   27  A    between atoms: _77  and  _80
REMARK   28  A    between atoms: _80  and  _81
REMARK   29  A    between atoms: _86  and  _88
REMARK   30  A    between atoms: _88  and  _89
REMARK   31  A    between atoms: _88  and  _91
REMARK   32  A    between atoms: _91  and  _92
REMARK   33  A    between atoms: _95  and  _97
REMARK   34  A    between atoms: _97  and  _98
REMARK   35  A    between atoms: _97  and  _100
REMARK   36  A    between atoms: _100  and  _101
REMARK   37  A    between atoms: _101  and  _102
REMARK   38  A    between atoms: _107  and  _109
REMARK   39  A    between atoms: _109  and  _110
REMARK   40  A    between atoms: _109  and  _112
REMARK   41  A    between atoms: _112  and  _113
REMARK   42  A    between atoms: _119  and  _121
REMARK   43  A    between atoms: _132  and  _135
REMARK   44  A    between atoms: _135  and  _136
REMARK   45  A    between atoms: _144  and  _145
REMARK   46  A    between atoms: _153  and  _155
REMARK   47  A    between atoms: _155  and  _156
REMARK   48  A    between atoms: _155  and  _158
REMARK   49  A    between atoms: _158  and  _159
REMARK   50  A    between atoms: _159  and  _160
REMARK   51  A    between atoms: _163  and  _165
REMARK   52  A    between atoms: _165  and  _166
REMARK   53  A    between atoms: _165  and  _168
REMARK   54  A    between atoms: _168  and  _169
REMARK   55  A    between atoms: _174  and  _176
REMARK   56  A    between atoms: _176  and  _177
REMARK   57  A    between atoms: _176  and  _179
REMARK   58  A    between atoms: _179  and  _180
REMARK   59  A    between atoms: _180  and  _181
REMARK   60  A    between atoms: _184  and  _186
REMARK   61  A    between atoms: _186  and  _187
REMARK   62  A    between atoms: _186  and  _189
REMARK   63  A    between atoms: _189  and  _190
REMARK   64  A    between atoms: _193  and  _195
REMARK   65  A    between atoms: _195  and  _196
REMARK   66  A    between atoms: _195  and  _198
REMARK   67  A    between atoms: _198  and  _199
REMARK   68  A    between atoms: _200  and  ZN_447
REMARK   69  A    between atoms: _204  and  _206
REMARK   70  A    between atoms: _206  and  _207
REMARK   71  A    between atoms: _206  and  _209
REMARK   72  A    between atoms: _209  and  _210
REMARK   73  A    between atoms: _213  and  _215
REMARK   74  A    between atoms: _215  and  _216
REMARK   75  A    between atoms: _215  and  _218
REMARK   76  A    between atoms: _221  and  _223
REMARK   77  A    between atoms: _223  and  _224
REMARK   78  A    between atoms: _223  and  _226
REMARK   79  A    between atoms: _226  and  _227
REMARK   80  A    between atoms: _232  and  _234
REMARK   81  A    between atoms: _234  and  _235
REMARK   82  A    between atoms: _234  and  _237
REMARK   83  A    between atoms: _240  and  _242
REMARK   84  A    between atoms: _242  and  _243
REMARK   85  A    between atoms: _245  and  _247
REMARK   86  A    between atoms: _247  and  _248
REMARK   87  A    between atoms: _247  and  _250
REMARK   88  A    between atoms: _250  and  _251
REMARK   89  A    between atoms: _251  and  _252
REMARK   90  A    between atoms: _252  and  _253
REMARK   91  A    between atoms: _253  and  _254
REMARK   92  A    between atoms: _258  and  _260
REMARK   93  A    between atoms: _260  and  _261
REMARK   94  A    between atoms: _264  and  _266
REMARK   95  A    between atoms: _266  and  _267
REMARK   96  A    between atoms: _266  and  _269
REMARK   97  A    between atoms: _272  and  _274
REMARK   98  A    between atoms: _274  and  _275
REMARK   99  A    between atoms: _274  and  _277
REMARK  100  A    between atoms: _277  and  _278
REMARK  101  A    between atoms: _278  and  _279
REMARK  102  A    between atoms: _284  and  _286
REMARK  103  A    between atoms: _286  and  _287
REMARK  104  A    between atoms: _286  and  _289
REMARK  105  A    between atoms: _289  and  _290
REMARK  106  A    between atoms: _293  and  _295
REMARK  107  A    between atoms: _295  and  _296
REMARK  108  A    between atoms: _299  and  _301
REMARK  109  A    between atoms: _301  and  _302
REMARK  110  A    between atoms: _301  and  _304
REMARK  111  A    between atoms: _307  and  _309
REMARK  112  A    between atoms: _309  and  _310
REMARK  113  A    between atoms: _309  and  _312
REMARK  114  A    between atoms: _312  and  _313
REMARK  115  A    between atoms: _316  and  _318
REMARK  116  A    between atoms: _318  and  _319
REMARK  117  A    between atoms: _321  and  _323
REMARK  118  A    between atoms: _323  and  _324
REMARK  119  A    between atoms: _323  and  _326
REMARK  120  A    between atoms: _326  and  _327
REMARK  121  A    between atoms: _329  and  _331
REMARK  122  A    between atoms: _331  and  _332
REMARK  123  A    between atoms: _331  and  _334
REMARK  124  A    between atoms: _334  and  _335
REMARK  125  A    between atoms: _338  and  _340
REMARK  126  A    between atoms: _340  and  _341
REMARK  127  A    between atoms: _340  and  _343
REMARK  128  A    between atoms: _343  and  _344
REMARK  129  A    between atoms: _347  and  _349
REMARK  130  A    between atoms: _349  and  _350
REMARK  131  A    between atoms: _349  and  _352
REMARK  132  A    between atoms: _352  and  _353
REMARK  133  A    between atoms: _357  and  _358
REMARK  134  A    between atoms: _364  and  _365
REMARK  135  A    between atoms: _370  and  _372
REMARK  136  A    between atoms: _372  and  _373
REMARK  137  A    between atoms: _372  and  _375
REMARK  138  A    between atoms: _375  and  _376
REMARK  139  A    between atoms: _379  and  _381
REMARK  140  A    between atoms: _381  and  _382
REMARK  141  A    between atoms: _381  and  _384
REMARK  142  A    between atoms: _384  and  _385
REMARK  143  A    between atoms: _388  and  _390
REMARK  144  A    between atoms: _390  and  _391
REMARK  145  A    between atoms: _390  and  _393
REMARK  146  A    between atoms: _395  and  _397
REMARK  147  A    between atoms: _397  and  _398
REMARK  148  A    between atoms: _397  and  _400
REMARK  149  A    between atoms: _403  and  _405
REMARK  150  A    between atoms: _405  and  _406
REMARK  151  A    between atoms: _405  and  _408
REMARK  152  A    between atoms: _408  and  _409
REMARK  153  A    between atoms: _419  and  _421
REMARK  154  A    between atoms: _421  and  _422
REMARK  155  A    between atoms: _421  and  _424
REMARK  156  A    between atoms: _424  and  _425
REMARK  157  A    between atoms: _430  and  _432
REMARK  158  A    between atoms: _432  and  _433
REMARK  159  A    between atoms: _432  and  _435
REMARK  160  A    between atoms: _435  and  _436
REMARK  161  A    between atoms: _436  and  _437
REMARK  162  A    between atoms: _437  and  _438
REMARK                            x       y       z     vdW  Elec       q    Type
REMARK                         _______ _______ _______ _____ _____    ______ ____
ROOT
ATOM      1  O   HOH     1      -7.019   7.605  15.494  0.00  0.00    +0.000 OA
ENDROOT
TORSDOF 0
REMARK  Name = ../refined-set-2016/1g48/1g48_pocket.pdb
REMARK  162 active torsions:
REMARK  status: ('A' for Active; 'I' for Inactive)
REMARK    1  A    between atoms: _1  and  _3
REMARK    2  A    between atoms: _3  and  _4
REMARK    3  A    between atoms: _3  and  _6
REMARK    4  A    between atoms: _6  and  _7
REMARK    5  A    between atoms: _17  and  _19
REMARK    6  A    between atoms: _19  and  _20
REMARK    7  A    between atoms: _19  and  _22
REMARK    8  A    between atoms: _22  and  _23
REMARK    9  A    between atoms: _28  and  _29
REMARK   10  A    between atoms: _31  and  _33
REMARK   11  A    between atoms: _33  and  _34
REMARK   12  A    between atoms: _33  and  _36
REMARK   13  A    between atoms: _36  and  _37
REMARK   14  A    between atoms: _43  and  _45
REMARK   15  A    between atoms: _45  and  _46
REMARK   16  A    between atoms: _45  and  _48
REMARK   17  A    between atoms: _48  and  _49
REMARK   18  A    between atoms: _52  and  _53
REMARK   19  A    between atoms: _58  and  _60
REMARK   20  A    between atoms: _60  and  _61
REMARK   21  A    between atoms: _60  and  _63
REMARK   22  A    between atoms: _63  and  _64
REMARK   23  A    between atoms: _69  and  _71
REMARK   24  A    between atoms: _71  and  _72
REMARK   25  A    between atoms: _75  and  _77
REMARK   26  A    between atoms: _77  and  _78
REMARK   27  A    between atoms: _77  and  _80
REMARK   28  A    between atoms: _80  and  _81
REMARK   29  A    between atoms: _86  and  _88
REMARK   30  A    between atoms: _88  and  _89
REMARK   31  A    between atoms: _88  and  _91
REMARK   32  A    between atoms: _91  and  _92
REMARK   33  A    between atoms: _95  and  _97
REMARK   34  A    between atoms: _97  and  _98
REMARK   35  A    between atoms: _97  and  _100
REMARK   36  A    between atoms: _100  and  _101
REMARK   37  A    between atoms: _101  and  _102
REMARK   38  A    between atoms: _107  and  _109
REMARK   39  A    between atoms: _109  and  _110
REMARK   40  A    between atoms: _109  and  _112
REMARK   41  A    between atoms: _112  and  _113
REMARK   42  A    between atoms: _119  and  _121
REMARK   43  A    between atoms: _132  and  _135
REMARK   44  A    between atoms: _135  and  _136
REMARK   45  A    between atoms: _144  and  _145
REMARK   46  A    between atoms: _153  and  _155
REMARK   47  A    between atoms: _155  and  _156
REMARK   48  A    between atoms: _155  and  _158
REMARK   49  A    between atoms: _158  and  _159
REMARK   50  A    between atoms: _159  and  _160
REMARK   51  A    between atoms: _163  and  _165
REMARK   52  A    between atoms: _165  and  _166
REMARK   53  A    between atoms: _165  and  _168
REMARK   54  A    between atoms: _168  and  _169
REMARK   55  A    between atoms: _174  and  _176
REMARK   56  A    between atoms: _176  and  _177
REMARK   57  A    between atoms: _176  and  _179
REMARK   58  A    between atoms: _179  and  _180
REMARK   59  A    between atoms: _180  and  _181
REMARK   60  A    between atoms: _184  and  _186
REMARK   61  A    between atoms: _186  and  _187
REMARK   62  A    between atoms: _186  and  _189
REMARK   63  A    between atoms: _189  and  _190
REMARK   64  A    between atoms: _193  and  _195
REMARK   65  A    between atoms: _195  and  _196
REMARK   66  A    between atoms: _195  and  _198
REMARK   67  A    between atoms: _198  and  _199
REMARK   68  A    between atoms: _200  and  ZN_447
REMARK   69  A    between atoms: _204  and  _206
REMARK   70  A    between atoms: _206  and  _207
REMARK   71  A    between atoms: _206  and  _209
REMARK   72  A    between atoms: _209  and  _210
REMARK   73  A    between atoms: _213  and  _215
REMARK   74  A    between atoms: _215  and  _216
REMARK   75  A    between atoms: _215  and  _218
REMARK   76  A    between atoms: _221  and  _223
REMARK   77  A    between atoms: _223  and  _224
REMARK   78  A    between atoms: _223  and  _226
REMARK   79  A    between atoms: _226  and  _227
REMARK   80  A    between atoms: _232  and  _234
REMARK   81  A    between atoms: _234  and  _235
REMARK   82  A    between atoms: _234  and  _237
REMARK   83  A    between atoms: _240  and  _242
REMARK   84  A    between atoms: _242  and  _243
REMARK   85  A    between atoms: _245  and  _247
REMARK   86  A    between atoms: _247  and  _248
REMARK   87  A    between atoms: _247  and  _250
REMARK   88  A    between atoms: _250  and  _251
REMARK   89  A    between atoms: _251  and  _252
REMARK   90  A    between atoms: _252  and  _253
REMARK   91  A    between atoms: _253  and  _254
REMARK   92  A    between atoms: _258  and  _260
REMARK   93  A    between atoms: _260  and  _261
REMARK   94  A    between atoms: _264  and  _266
REMARK   95  A    between atoms: _266  and  _267
REMARK   96  A    between atoms: _266  and  _269
REMARK   97  A    between atoms: _272  and  _274
REMARK   98  A    between atoms: _274  and  _275
REMARK   99  A    between atoms: _274  and  _277
REMARK  100  A    between atoms: _277  and  _278
REMARK  101  A    between atoms: _278  and  _279
REMARK  102  A    between atoms: _284  and  _286
REMARK  103  A    between atoms: _286  and  _287
REMARK  104  A    between atoms: _286  and  _289
REMARK  105  A    between atoms: _289  and  _290
REMARK  106  A    between atoms: _293  and  _295
REMARK  107  A    between atoms: _295  and  _296
REMARK  108  A    between atoms: _299  and  _301
REMARK  109  A    between atoms: _301  and  _302
REMARK  110  A    between atoms: _301  and  _304
REMARK  111  A    between atoms: _307  and  _309
REMARK  112  A    between atoms: _309  and  _310
REMARK  113  A    between atoms: _309  and  _312
REMARK  114  A    between atoms: _312  and  _313
REMARK  115  A    between atoms: _316  and  _318
REMARK  116  A    between atoms: _318  and  _319
REMARK  117  A    between atoms: _321  and  _323
REMARK  118  A    between atoms: _323  and  _324
REMARK  119  A    between atoms: _323  and  _326
REMARK  120  A    between atoms: _326  and  _327
REMARK  121  A    between atoms: _329  and  _331
REMARK  122  A    between atoms: _331  and  _332
REMARK  123  A    between atoms: _331  and  _334
REMARK  124  A    between atoms: _334  and  _335
REMARK  125  A    between atoms: _338  and  _340
REMARK  126  A    between atoms: _340  and  _341
REMARK  127  A    between atoms: _340  and  _343
REMARK  128  A    between atoms: _343  and  _344
REMARK  129  A    between atoms: _347  and  _349
REMARK  130  A    between atoms: _349  and  _350
REMARK  131  A    between atoms: _349  and  _352
REMARK  132  A    between atoms: _352  and  _353
REMARK  133  A    between atoms: _357  and  _358
REMARK  134  A    between atoms: _364  and  _365
REMARK  135  A    between atoms: _370  and  _372
REMARK  136  A    between atoms: _372  and  _373
REMARK  137  A    between atoms: _372  and  _375
REMARK  138  A    between atoms: _375  and  _376
REMARK  139  A    between atoms: _379  and  _381
REMARK  140  A    between atoms: _381  and  _382
REMARK  141  A    between atoms: _381  and  _384
REMARK  142  A    between atoms: _384  and  _385
REMARK  143  A    between atoms: _388  and  _390
REMARK  144  A    between atoms: _390  and  _391
REMARK  145  A    between atoms: _390  and  _393
REMARK  146  A    between atoms: _395  and  _397
REMARK  147  A    between atoms: _397  and  _398
REMARK  148  A    between atoms: _397  and  _400
REMARK  149  A    between atoms: _403  and  _405
REMARK  150  A    between atoms: _405  and  _406
REMARK  151  A    between atoms: _405  and  _408
REMARK  152  A    between atoms: _408  and  _409
REMARK  153  A    between atoms: _419  and  _421
REMARK  154  A    between atoms: _421  and  _422
REMARK  155  A    between atoms: _421  and  _424
REMARK  156  A    between atoms: _424  and  _425
REMARK  157  A    between atoms: _430  and  _432
REMARK  158  A    between atoms: _432  and  _433
REMARK  159  A    between atoms: _432  and  _435
REMARK  160  A    between atoms: _435  and  _436
REMARK  161  A    between atoms: _436  and  _437
REMARK  162  A    between atoms: _437  and  _438
REMARK                            x       y       z     vdW  Elec       q    Type
REMARK                         _______ _______ _______ _____ _____    ______ ____
ROOT
ATOM      1  O   HOH     1      -6.541   9.638  10.128  0.00  0.00    +0.000 OA
ENDROOT
TORSDOF 0
REMARK  Name = ../refined-set-2016/1g48/1g48_pocket.pdb
REMARK  162 active torsions:
REMARK  status: ('A' for Active; 'I' for Inactive)
REMARK    1  A    between atoms: _1  and  _3
REMARK    2  A    between atoms: _3  and  _4
REMARK    3  A    between atoms: _3  and  _6
REMARK    4  A    between atoms: _6  and  _7
REMARK    5  A    between atoms: _17  and  _19
REMARK    6  A    between atoms: _19  and  _20
REMARK    7  A    between atoms: _19  and  _22
REMARK    8  A    between atoms: _22  and  _23
REMARK    9  A    between atoms: _28  and  _29
REMARK   10  A    between atoms: _31  and  _33
REMARK   11  A    between atoms: _33  and  _34
REMARK   12  A    between atoms: _33  and  _36
REMARK   13  A    between atoms: _36  and  _37
REMARK   14  A    between atoms: _43  and  _45
REMARK   15  A    between atoms: _45  and  _46
REMARK   16  A    between atoms: _45  and  _48
REMARK   17  A    between atoms: _48  and  _49
REMARK   18  A    between atoms: _52  and  _53
REMARK   19  A    between atoms: _58  and  _60
REMARK   20  A    between atoms: _60  and  _61
REMARK   21  A    between atoms: _60  and  _63
REMARK   22  A    between atoms: _63  and  _64
REMARK   23  A    between atoms: _69  and  _71
REMARK   24  A    between atoms: _71  and  _72
REMARK   25  A    between atoms: _75  and  _77
REMARK   26  A    between atoms: _77  and  _78
REMARK   27  A    between atoms: _77  and  _80
REMARK   28  A    between atoms: _80  and  _81
REMARK   29  A    between atoms: _86  and  _88
REMARK   30  A    between atoms: _88  and  _89
REMARK   31  A    between atoms: _88  and  _91
REMARK   32  A    between atoms: _91  and  _92
REMARK   33  A    between atoms: _95  and  _97
REMARK   34  A    between atoms: _97  and  _98
REMARK   35  A    between atoms: _97  and  _100
REMARK   36  A    between atoms: _100  and  _101
REMARK   37  A    between atoms: _101  and  _102
REMARK   38  A    between atoms: _107  and  _109
REMARK   39  A    between atoms: _109  and  _110
REMARK   40  A    between atoms: _109  and  _112
REMARK   41  A    between atoms: _112  and  _113
REMARK   42  A    between atoms: _119  and  _121
REMARK   43  A    between atoms: _132  and  _135
REMARK   44  A    between atoms: _135  and  _136
REMARK   45  A    between atoms: _144  and  _145
REMARK   46  A    between atoms: _153  and  _155
REMARK   47  A    between atoms: _155  and  _156
REMARK   48  A    between atoms: _155  and  _158
REMARK   49  A    between atoms: _158  and  _159
REMARK   50  A    between atoms: _159  and  _160
REMARK   51  A    between atoms: _163  and  _165
REMARK   52  A    between atoms: _165  and  _166
REMARK   53  A    between atoms: _165  and  _168
REMARK   54  A    between atoms: _168  and  _169
REMARK   55  A    between atoms: _174  and  _176
REMARK   56  A    between atoms: _176  and  _177
REMARK   57  A    between atoms: _176  and  _179
REMARK   58  A    between atoms: _179  and  _180
REMARK   59  A    between atoms: _180  and  _181
REMARK   60  A    between atoms: _184  and  _186
REMARK   61  A    between atoms: _186  and  _187
REMARK   62  A    between atoms: _186  and  _189
REMARK   63  A    between atoms: _189  and  _190
REMARK   64  A    between atoms: _193  and  _195
REMARK   65  A    between atoms: _195  and  _196
REMARK   66  A    between atoms: _195  and  _198
REMARK   67  A    between atoms: _198  and  _199
REMARK   68  A    between atoms: _200  and  ZN_447
REMARK   69  A    between atoms: _204  and  _206
REMARK   70  A    between atoms: _206  and  _207
REMARK   71  A    between atoms: _206  and  _209
REMARK   72  A    between atoms: _209  and  _210
REMARK   73  A    between atoms: _213  and  _215
REMARK   74  A    between atoms: _215  and  _216
REMARK   75  A    between atoms: _215  and  _218
REMARK   76  A    between atoms: _221  and  _223
REMARK   77  A    between atoms: _223  and  _224
REMARK   78  A    between atoms: _223  and  _226
REMARK   79  A    between atoms: _226  and  _227
REMARK   80  A    between atoms: _232  and  _234
REMARK   81  A    between atoms: _234  and  _235
REMARK   82  A    between atoms: _234  and  _237
REMARK   83  A    between atoms: _240  and  _242
REMARK   84  A    between atoms: _242  and  _243
REMARK   85  A    between atoms: _245  and  _247
REMARK   86  A    between atoms: _247  and  _248
REMARK   87  A    between atoms: _247  and  _250
REMARK   88  A    between atoms: _250  and  _251
REMARK   89  A    between atoms: _251  and  _252
REMARK   90  A    between atoms: _252  and  _253
REMARK   91  A    between atoms: _253  and  _254
REMARK   92  A    between atoms: _258  and  _260
REMARK   93  A    between atoms: _260  and  _261
REMARK   94  A    between atoms: _264  and  _266
REMARK   95  A    between atoms: _266  and  _267
REMARK   96  A    between atoms: _266  and  _269
REMARK   97  A    between atoms: _272  and  _274
REMARK   98  A    between atoms: _274  and  _275
REMARK   99  A    between atoms: _274  and  _277
REMARK  100  A    between atoms: _277  and  _278
REMARK  101  A    between atoms: _278  and  _279
REMARK  102  A    between atoms: _284  and  _286
REMARK  103  A    between atoms: _286  and  _287
REMARK  104  A    between atoms: _286  and  _289
REMARK  105  A    between atoms: _289  and  _290
REMARK  106  A    between atoms: _293  and  _295
REMARK  107  A    between atoms: _295  and  _296
REMARK  108  A    between atoms: _299  and  _301
REMARK  109  A    between atoms: _301  and  _302
REMARK  110  A    between atoms: _301  and  _304
REMARK  111  A    between atoms: _307  and  _309
REMARK  112  A    between atoms: _309  and  _310
REMARK  113  A    between atoms: _309  and  _312
REMARK  114  A    between atoms: _312  and  _313
REMARK  115  A    between atoms: _316  and  _318
REMARK  116  A    between atoms: _318  and  _319
REMARK  117  A    between atoms: _321  and  _323
REMARK  118  A    between atoms: _323  and  _324
REMARK  119  A    between atoms: _323  and  _326
REMARK  120  A    between atoms: _326  and  _327
REMARK  121  A    between atoms: _329  and  _331
REMARK  122  A    between atoms: _331  and  _332
REMARK  123  A    between atoms: _331  and  _334
REMARK  124  A    between atoms: _334  and  _335
REMARK  125  A    between atoms: _338  and  _340
REMARK  126  A    between atoms: _340  and  _341
REMARK  127  A    between atoms: _340  and  _343
REMARK  128  A    between atoms: _343  and  _344
REMARK  129  A    between atoms: _347  and  _349
REMARK  130  A    between atoms: _349  and  _350
REMARK  131  A    between atoms: _349  and  _352
REMARK  132  A    between atoms: _352  and  _353
REMARK  133  A    between atoms: _357  and  _358
REMARK  134  A    between atoms: _364  and  _365
REMARK  135  A    between atoms: _370  and  _372
REMARK  136  A    between atoms: _372  and  _373
REMARK  137  A    between atoms: _372  and  _375
REMARK  138  A    between atoms: _375  and  _376
REMARK  139  A    between atoms: _379  and  _381
REMARK  140  A    between atoms: _381  and  _382
REMARK  141  A    between atoms: _381  and  _384
REMARK  142  A    between atoms: _384  and  _385
REMARK  143  A    between atoms: _388  and  _390
REMARK  144  A    between atoms: _390  and  _391
REMARK  145  A    between atoms: _390  and  _393
REMARK  146  A    between atoms: _395  and  _397
REMARK  147  A    between atoms: _397  and  _398
REMARK  148  A    between atoms: _397  and  _400
REMARK  149  A    between atoms: _403  and  _405
REMARK  150  A    between atoms: _405  and  _406
REMARK  151  A    between atoms: _405  and  _408
REMARK  152  A    between atoms: _408  and  _409
REMARK  153  A    between atoms: _419  and  _421
REMARK  154  A    between atoms: _421  and  _422
REMARK  155  A    between atoms: _421  and  _424
REMARK  156  A    between atoms: _424  and  _425
REMARK  157  A    between atoms: _430  and  _432
REMARK  158  A    between atoms: _432  and  _433
REMARK  159  A    between atoms: _432  and  _435
REMARK  160  A    between atoms: _435  and  _436
REMARK  161  A    between atoms: _436  and  _437
REMARK  162  A    between atoms: _437  and  _438
REMARK                            x       y       z     vdW  Elec       q    Type
REMARK                         _______ _______ _______ _____ _____    ______ ____
ROOT
ATOM      1  O   HOH     1      -5.147   1.497  10.823  0.00  0.00    +0.000 OA
ENDROOT
TORSDOF 0
REMARK  Name = ../refined-set-2016/1g48/1g48_pocket.pdb
REMARK  162 active torsions:
REMARK  status: ('A' for Active; 'I' for Inactive)
REMARK    1  A    between atoms: _1  and  _3
REMARK    2  A    between atoms: _3  and  _4
REMARK    3  A    between atoms: _3  and  _6
REMARK    4  A    between atoms: _6  and  _7
REMARK    5  A    between atoms: _17  and  _19
REMARK    6  A    between atoms: _19  and  _20
REMARK    7  A    between atoms: _19  and  _22
REMARK    8  A    between atoms: _22  and  _23
REMARK    9  A    between atoms: _28  and  _29
REMARK   10  A    between atoms: _31  and  _33
REMARK   11  A    between atoms: _33  and  _34
REMARK   12  A    between atoms: _33  and  _36
REMARK   13  A    between atoms: _36  and  _37
REMARK   14  A    between atoms: _43  and  _45
REMARK   15  A    between atoms: _45  and  _46
REMARK   16  A    between atoms: _45  and  _48
REMARK   17  A    between atoms: _48  and  _49
REMARK   18  A    between atoms: _52  and  _53
REMARK   19  A    between atoms: _58  and  _60
REMARK   20  A    between atoms: _60  and  _61
REMARK   21  A    between atoms: _60  and  _63
REMARK   22  A    between atoms: _63  and  _64
REMARK   23  A    between atoms: _69  and  _71
REMARK   24  A    between atoms: _71  and  _72
REMARK   25  A    between atoms: _75  and  _77
REMARK   26  A    between atoms: _77  and  _78
REMARK   27  A    between atoms: _77  and  _80
REMARK   28  A    between atoms: _80  and  _81
REMARK   29  A    between atoms: _86  and  _88
REMARK   30  A    between atoms: _88  and  _89
REMARK   31  A    between atoms: _88  and  _91
REMARK   32  A    between atoms: _91  and  _92
REMARK   33  A    between atoms: _95  and  _97
REMARK   34  A    between atoms: _97  and  _98
REMARK   35  A    between atoms: _97  and  _100
REMARK   36  A    between atoms: _100  and  _101
REMARK   37  A    between atoms: _101  and  _102
REMARK   38  A    between atoms: _107  and  _109
REMARK   39  A    between atoms: _109  and  _110
REMARK   40  A    between atoms: _109  and  _112
REMARK   41  A    between atoms: _112  and  _113
REMARK   42  A    between atoms: _119  and  _121
REMARK   43  A    between atoms: _132  and  _135
REMARK   44  A    between atoms: _135  and  _136
REMARK   45  A    between atoms: _144  and  _145
REMARK   46  A    between atoms: _153  and  _155
REMARK   47  A    between atoms: _155  and  _156
REMARK   48  A    between atoms: _155  and  _158
REMARK   49  A    between atoms: _158  and  _159
REMARK   50  A    between atoms: _159  and  _160
REMARK   51  A    between atoms: _163  and  _165
REMARK   52  A    between atoms: _165  and  _166
REMARK   53  A    between atoms: _165  and  _168
REMARK   54  A    between atoms: _168  and  _169
REMARK   55  A    between atoms: _174  and  _176
REMARK   56  A    between atoms: _176  and  _177
REMARK   57  A    between atoms: _176  and  _179
REMARK   58  A    between atoms: _179  and  _180
REMARK   59  A    between atoms: _180  and  _181
REMARK   60  A    between atoms: _184  and  _186
REMARK   61  A    between atoms: _186  and  _187
REMARK   62  A    between atoms: _186  and  _189
REMARK   63  A    between atoms: _189  and  _190
REMARK   64  A    between atoms: _193  and  _195
REMARK   65  A    between atoms: _195  and  _196
REMARK   66  A    between atoms: _195  and  _198
REMARK   67  A    between atoms: _198  and  _199
REMARK   68  A    between atoms: _200  and  ZN_447
REMARK   69  A    between atoms: _204  and  _206
REMARK   70  A    between atoms: _206  and  _207
REMARK   71  A    between atoms: _206  and  _209
REMARK   72  A    between atoms: _209  and  _210
REMARK   73  A    between atoms: _213  and  _215
REMARK   74  A    between atoms: _215  and  _216
REMARK   75  A    between atoms: _215  and  _218
REMARK   76  A    between atoms: _221  and  _223
REMARK   77  A    between atoms: _223  and  _224
REMARK   78  A    between atoms: _223  and  _226
REMARK   79  A    between atoms: _226  and  _227
REMARK   80  A    between atoms: _232  and  _234
REMARK   81  A    between atoms: _234  and  _235
REMARK   82  A    between atoms: _234  and  _237
REMARK   83  A    between atoms: _240  and  _242
REMARK   84  A    between atoms: _242  and  _243
REMARK   85  A    between atoms: _245  and  _247
REMARK   86  A    between atoms: _247  and  _248
REMARK   87  A    between atoms: _247  and  _250
REMARK   88  A    between atoms: _250  and  _251
REMARK   89  A    between atoms: _251  and  _252
REMARK   90  A    between atoms: _252  and  _253
REMARK   91  A    between atoms: _253  and  _254
REMARK   92  A    between atoms: _258  and  _260
REMARK   93  A    between atoms: _260  and  _261
REMARK   94  A    between atoms: _264  and  _266
REMARK   95  A    between atoms: _266  and  _267
REMARK   96  A    between atoms: _266  and  _269
REMARK   97  A    between atoms: _272  and  _274
REMARK   98  A    between atoms: _274  and  _275
REMARK   99  A    between atoms: _274  and  _277
REMARK  100  A    between atoms: _277  and  _278
REMARK  101  A    between atoms: _278  and  _279
REMARK  102  A    between atoms: _284  and  _286
REMARK  103  A    between atoms: _286  and  _287
REMARK  104  A    between atoms: _286  and  _289
REMARK  105  A    between atoms: _289  and  _290
REMARK  106  A    between atoms: _293  and  _295
REMARK  107  A    between atoms: _295  and  _296
REMARK  108  A    between atoms: _299  and  _301
REMARK  109  A    between atoms: _301  and  _302
REMARK  110  A    between atoms: _301  and  _304
REMARK  111  A    between atoms: _307  and  _309
REMARK  112  A    between atoms: _309  and  _310
REMARK  113  A    between atoms: _309  and  _312
REMARK  114  A    between atoms: _312  and  _313
REMARK  115  A    between atoms: _316  and  _318
REMARK  116  A    between atoms: _318  and  _319
REMARK  117  A    between atoms: _321  and  _323
REMARK  118  A    between atoms: _323  and  _324
REMARK  119  A    between atoms: _323  and  _326
REMARK  120  A    between atoms: _326  and  _327
REMARK  121  A    between atoms: _329  and  _331
REMARK  122  A    between atoms: _331  and  _332
REMARK  123  A    between atoms: _331  and  _334
REMARK  124  A    between atoms: _334  and  _335
REMARK  125  A    between atoms: _338  and  _340
REMARK  126  A    between atoms: _340  and  _341
REMARK  127  A    between atoms: _340  and  _343
REMARK  128  A    between atoms: _343  and  _344
REMARK  129  A    between atoms: _347  and  _349
REMARK  130  A    between atoms: _349  and  _350
REMARK  131  A    between atoms: _349  and  _352
REMARK  132  A    between atoms: _352  and  _353
REMARK  133  A    between atoms: _357  and  _358
REMARK  134  A    between atoms: _364  and  _365
REMARK  135  A    between atoms: _370  and  _372
REMARK  136  A    between atoms: _372  and  _373
REMARK  137  A    between atoms: _372  and  _375
REMARK  138  A    between atoms: _375  and  _376
REMARK  139  A    between atoms: _379  and  _381
REMARK  140  A    between atoms: _381  and  _382
REMARK  141  A    between atoms: _381  and  _384
REMARK  142  A    between atoms: _384  and  _385
REMARK  143  A    between atoms: _388  and  _390
REMARK  144  A    between atoms: _390  and  _391
REMARK  145  A    between atoms: _390  and  _393
REMARK  146  A    between atoms: _395  and  _397
REMARK  147  A    between atoms: _397  and  _398
REMARK  148  A    between atoms: _397  and  _400
REMARK  149  A    between atoms: _403  and  _405
REMARK  150  A    between atoms: _405  and  _406
REMARK  151  A    between atoms: _405  and  _408
REMARK  152  A    between atoms: _408  and  _409
REMARK  153  A    between atoms: _419  and  _421
REMARK  154  A    between atoms: _421  and  _422
REMARK  155  A    between atoms: _421  and  _424
REMARK  156  A    between atoms: _424  and  _425
REMARK  157  A    between atoms: _430  and  _432
REMARK  158  A    between atoms: _432  and  _433
REMARK  159  A    between atoms: _432  and  _435
REMARK  160  A    between atoms: _435  and  _436
REMARK  161  A    between atoms: _436  and  _437
REMARK  162  A    between atoms: _437  and  _438
REMARK                            x       y       z     vdW  Elec       q    Type
REMARK                         _______ _______ _______ _____ _____    ______ ____
ROOT
ATOM      1  O   HOH     1      -6.267   6.803  10.636  0.00  0.00    +0.000 OA
ENDROOT
TORSDOF 0
REMARK  Name = ../refined-set-2016/1g48/1g48_pocket.pdb
REMARK  162 active torsions:
REMARK  status: ('A' for Active; 'I' for Inactive)
REMARK    1  A    between atoms: _1  and  _3
REMARK    2  A    between atoms: _3  and  _4
REMARK    3  A    between atoms: _3  and  _6
REMARK    4  A    between atoms: _6  and  _7
REMARK    5  A    between atoms: _17  and  _19
REMARK    6  A    between atoms: _19  and  _20
REMARK    7  A    between atoms: _19  and  _22
REMARK    8  A    between atoms: _22  and  _23
REMARK    9  A    between atoms: _28  and  _29
REMARK   10  A    between atoms: _31  and  _33
REMARK   11  A    between atoms: _33  and  _34
REMARK   12  A    between atoms: _33  and  _36
REMARK   13  A    between atoms: _36  and  _37
REMARK   14  A    between atoms: _43  and  _45
REMARK   15  A    between atoms: _45  and  _46
REMARK   16  A    between atoms: _45  and  _48
REMARK   17  A    between atoms: _48  and  _49
REMARK   18  A    between atoms: _52  and  _53
REMARK   19  A    between atoms: _58  and  _60
REMARK   20  A    between atoms: _60  and  _61
REMARK   21  A    between atoms: _60  and  _63
REMARK   22  A    between atoms: _63  and  _64
REMARK   23  A    between atoms: _69  and  _71
REMARK   24  A    between atoms: _71  and  _72
REMARK   25  A    between atoms: _75  and  _77
REMARK   26  A    between atoms: _77  and  _78
REMARK   27  A    between atoms: _77  and  _80
REMARK   28  A    between atoms: _80  and  _81
REMARK   29  A    between atoms: _86  and  _88
REMARK   30  A    between atoms: _88  and  _89
REMARK   31  A    between atoms: _88  and  _91
REMARK   32  A    between atoms: _91  and  _92
REMARK   33  A    between atoms: _95  and  _97
REMARK   34  A    between atoms: _97  and  _98
REMARK   35  A    between atoms: _97  and  _100
REMARK   36  A    between atoms: _100  and  _101
REMARK   37  A    between atoms: _101  and  _102
REMARK   38  A    between atoms: _107  and  _109
REMARK   39  A    between atoms: _109  and  _110
REMARK   40  A    between atoms: _109  and  _112
REMARK   41  A    between atoms: _112  and  _113
REMARK   42  A    between atoms: _119  and  _121
REMARK   43  A    between atoms: _132  and  _135
REMARK   44  A    between atoms: _135  and  _136
REMARK   45  A    between atoms: _144  and  _145
REMARK   46  A    between atoms: _153  and  _155
REMARK   47  A    between atoms: _155  and  _156
REMARK   48  A    between atoms: _155  and  _158
REMARK   49  A    between atoms: _158  and  _159
REMARK   50  A    between atoms: _159  and  _160
REMARK   51  A    between atoms: _163  and  _165
REMARK   52  A    between atoms: _165  and  _166
REMARK   53  A    between atoms: _165  and  _168
REMARK   54  A    between atoms: _168  and  _169
REMARK   55  A    between atoms: _174  and  _176
REMARK   56  A    between atoms: _176  and  _177
REMARK   57  A    between atoms: _176  and  _179
REMARK   58  A    between atoms: _179  and  _180
REMARK   59  A    between atoms: _180  and  _181
REMARK   60  A    between atoms: _184  and  _186
REMARK   61  A    between atoms: _186  and  _187
REMARK   62  A    between atoms: _186  and  _189
REMARK   63  A    between atoms: _189  and  _190
REMARK   64  A    between atoms: _193  and  _195
REMARK   65  A    between atoms: _195  and  _196
REMARK   66  A    between atoms: _195  and  _198
REMARK   67  A    between atoms: _198  and  _199
REMARK   68  A    between atoms: _200  and  ZN_447
REMARK   69  A    between atoms: _204  and  _206
REMARK   70  A    between atoms: _206  and  _207
REMARK   71  A    between atoms: _206  and  _209
REMARK   72  A    between atoms: _209  and  _210
REMARK   73  A    between atoms: _213  and  _215
REMARK   74  A    between atoms: _215  and  _216
REMARK   75  A    between atoms: _215  and  _218
REMARK   76  A    between atoms: _221  and  _223
REMARK   77  A    between atoms: _223  and  _224
REMARK   78  A    between atoms: _223  and  _226
REMARK   79  A    between atoms: _226  and  _227
REMARK   80  A    between atoms: _232  and  _234
REMARK   81  A    between atoms: _234  and  _235
REMARK   82  A    between atoms: _234  and  _237
REMARK   83  A    between atoms: _240  and  _242
REMARK   84  A    between atoms: _242  and  _243
REMARK   85  A    between atoms: _245  and  _247
REMARK   86  A    between atoms: _247  and  _248
REMARK   87  A    between atoms: _247  and  _250
REMARK   88  A    between atoms: _250  and  _251
REMARK   89  A    between atoms: _251  and  _252
REMARK   90  A    between atoms: _252  and  _253
REMARK   91  A    between atoms: _253  and  _254
REMARK   92  A    between atoms: _258  and  _260
REMARK   93  A    between atoms: _260  and  _261
REMARK   94  A    between atoms: _264  and  _266
REMARK   95  A    between atoms: _266  and  _267
REMARK   96  A    between atoms: _266  and  _269
REMARK   97  A    between atoms: _272  and  _274
REMARK   98  A    between atoms: _274  and  _275
REMARK   99  A    between atoms: _274  and  _277
REMARK  100  A    between atoms: _277  and  _278
REMARK  101  A    between atoms: _278  and  _279
REMARK  102  A    between atoms: _284  and  _286
REMARK  103  A    between atoms: _286  and  _287
REMARK  104  A    between atoms: _286  and  _289
REMARK  105  A    between atoms: _289  and  _290
REMARK  106  A    between atoms: _293  and  _295
REMARK  107  A    between atoms: _295  and  _296
REMARK  108  A    between atoms: _299  and  _301
REMARK  109  A    between atoms: _301  and  _302
REMARK  110  A    between atoms: _301  and  _304
REMARK  111  A    between atoms: _307  and  _309
REMARK  112  A    between atoms: _309  and  _310
REMARK  113  A    between atoms: _309  and  _312
REMARK  114  A    between atoms: _312  and  _313
REMARK  115  A    between atoms: _316  and  _318
REMARK  116  A    between atoms: _318  and  _319
REMARK  117  A    between atoms: _321  and  _323
REMARK  118  A    between atoms: _323  and  _324
REMARK  119  A    between atoms: _323  and  _326
REMARK  120  A    between atoms: _326  and  _327
REMARK  121  A    between atoms: _329  and  _331
REMARK  122  A    between atoms: _331  and  _332
REMARK  123  A    between atoms: _331  and  _334
REMARK  124  A    between atoms: _334  and  _335
REMARK  125  A    between atoms: _338  and  _340
REMARK  126  A    between atoms: _340  and  _341
REMARK  127  A    between atoms: _340  and  _343
REMARK  128  A    between atoms: _343  and  _344
REMARK  129  A    between atoms: _347  and  _349
REMARK  130  A    between atoms: _349  and  _350
REMARK  131  A    between atoms: _349  and  _352
REMARK  132  A    between atoms: _352  and  _353
REMARK  133  A    between atoms: _357  and  _358
REMARK  134  A    between atoms: _364  and  _365
REMARK  135  A    between atoms: _370  and  _372
REMARK  136  A    between atoms: _372  and  _373
REMARK  137  A    between atoms: _372  and  _375
REMARK  138  A    between atoms: _375  and  _376
REMARK  139  A    between atoms: _379  and  _381
REMARK  140  A    between atoms: _381  and  _382
REMARK  141  A    between atoms: _381  and  _384
REMARK  142  A    between atoms: _384  and  _385
REMARK  143  A    between atoms: _388  and  _390
REMARK  144  A    between atoms: _390  and  _391
REMARK  145  A    between atoms: _390  and  _393
REMARK  146  A    between atoms: _395  and  _397
REMARK  147  A    between atoms: _397  and  _398
REMARK  148  A    between atoms: _397  and  _400
REMARK  149  A    between atoms: _403  and  _405
REMARK  150  A    between atoms: _405  and  _406
REMARK  151  A    between atoms: _405  and  _408
REMARK  152  A    between atoms: _408  and  _409
REMARK  153  A    between atoms: _419  and  _421
REMARK  154  A    between atoms: _421  and  _422
REMARK  155  A    between atoms: _421  and  _424
REMARK  156  A    between atoms: _424  and  _425
REMARK  157  A    between atoms: _430  and  _432
REMARK  158  A    between atoms: _432  and  _433
REMARK  159  A    between atoms: _432  and  _435
REMARK  160  A    between atoms: _435  and  _436
REMARK  161  A    between atoms: _436  and  _437
REMARK  162  A    between atoms: _437  and  _438
REMARK                            x       y       z     vdW  Elec       q    Type
REMARK                         _______ _______ _______ _____ _____    ______ ____
ROOT
ATOM      1  O   HOH     1      -3.904   0.190  13.390  0.00  0.00    +0.000 OA
ENDROOT
TORSDOF 0
REMARK  Name = ../refined-set-2016/1g48/1g48_pocket.pdb
REMARK  162 active torsions:
REMARK  status: ('A' for Active; 'I' for Inactive)
REMARK    1  A    between atoms: _1  and  _3
REMARK    2  A    between atoms: _3  and  _4
REMARK    3  A    between atoms: _3  and  _6
REMARK    4  A    between atoms: _6  and  _7
REMARK    5  A    between atoms: _17  and  _19
REMARK    6  A    between atoms: _19  and  _20
REMARK    7  A    between atoms: _19  and  _22
REMARK    8  A    between atoms: _22  and  _23
REMARK    9  A    between atoms: _28  and  _29
REMARK   10  A    between atoms: _31  and  _33
REMARK   11  A    between atoms: _33  and  _34
REMARK   12  A    between atoms: _33  and  _36
REMARK   13  A    between atoms: _36  and  _37
REMARK   14  A    between atoms: _43  and  _45
REMARK   15  A    between atoms: _45  and  _46
REMARK   16  A    between atoms: _45  and  _48
REMARK   17  A    between atoms: _48  and  _49
REMARK   18  A    between atoms: _52  and  _53
REMARK   19  A    between atoms: _58  and  _60
REMARK   20  A    between atoms: _60  and  _61
REMARK   21  A    between atoms: _60  and  _63
REMARK   22  A    between atoms: _63  and  _64
REMARK   23  A    between atoms: _69  and  _71
REMARK   24  A    between atoms: _71  and  _72
REMARK   25  A    between atoms: _75  and  _77
REMARK   26  A    between atoms: _77  and  _78
REMARK   27  A    between atoms: _77  and  _80
REMARK   28  A    between atoms: _80  and  _81
REMARK   29  A    between atoms: _86  and  _88
REMARK   30  A    between atoms: _88  and  _89
REMARK   31  A    between atoms: _88  and  _91
REMARK   32  A    between atoms: _91  and  _92
REMARK   33  A    between atoms: _95  and  _97
REMARK   34  A    between atoms: _97  and  _98
REMARK   35  A    between atoms: _97  and  _100
REMARK   36  A    between atoms: _100  and  _101
REMARK   37  A    between atoms: _101  and  _102
REMARK   38  A    between atoms: _107  and  _109
REMARK   39  A    between atoms: _109  and  _110
REMARK   40  A    between atoms: _109  and  _112
REMARK   41  A    between atoms: _112  and  _113
REMARK   42  A    between atoms: _119  and  _121
REMARK   43  A    between atoms: _132  and  _135
REMARK   44  A    between atoms: _135  and  _136
REMARK   45  A    between atoms: _144  and  _145
REMARK   46  A    between atoms: _153  and  _155
REMARK   47  A    between atoms: _155  and  _156
REMARK   48  A    between atoms: _155  and  _158
REMARK   49  A    between atoms: _158  and  _159
REMARK   50  A    between atoms: _159  and  _160
REMARK   51  A    between atoms: _163  and  _165
REMARK   52  A    between atoms: _165  and  _166
REMARK   53  A    between atoms: _165  and  _168
REMARK   54  A    between atoms: _168  and  _169
REMARK   55  A    between atoms: _174  and  _176
REMARK   56  A    between atoms: _176  and  _177
REMARK   57  A    between atoms: _176  and  _179
REMARK   58  A    between atoms: _179  and  _180
REMARK   59  A    between atoms: _180  and  _181
REMARK   60  A    between atoms: _184  and  _186
REMARK   61  A    between atoms: _186  and  _187
REMARK   62  A    between atoms: _186  and  _189
REMARK   63  A    between atoms: _189  and  _190
REMARK   64  A    between atoms: _193  and  _195
REMARK   65  A    between atoms: _195  and  _196
REMARK   66  A    between atoms: _195  and  _198
REMARK   67  A    between atoms: _198  and  _199
REMARK   68  A    between atoms: _200  and  ZN_447
REMARK   69  A    between atoms: _204  and  _206
REMARK   70  A    between atoms: _206  and  _207
REMARK   71  A    between atoms: _206  and  _209
REMARK   72  A    between atoms: _209  and  _210
REMARK   73  A    between atoms: _213  and  _215
REMARK   74  A    between atoms: _215  and  _216
REMARK   75  A    between atoms: _215  and  _218
REMARK   76  A    between atoms: _221  and  _223
REMARK   77  A    between atoms: _223  and  _224
REMARK   78  A    between atoms: _223  and  _226
REMARK   79  A    between atoms: _226  and  _227
REMARK   80  A    between atoms: _232  and  _234
REMARK   81  A    between atoms: _234  and  _235
REMARK   82  A    between atoms: _234  and  _237
REMARK   83  A    between atoms: _240  and  _242
REMARK   84  A    between atoms: _242  and  _243
REMARK   85  A    between atoms: _245  and  _247
REMARK   86  A    between atoms: _247  and  _248
REMARK   87  A    between atoms: _247  and  _250
REMARK   88  A    between atoms: _250  and  _251
REMARK   89  A    between atoms: _251  and  _252
REMARK   90  A    between atoms: _252  and  _253
REMARK   91  A    between atoms: _253  and  _254
REMARK   92  A    between atoms: _258  and  _260
REMARK   93  A    between atoms: _260  and  _261
REMARK   94  A    between atoms: _264  and  _266
REMARK   95  A    between atoms: _266  and  _267
REMARK   96  A    between atoms: _266  and  _269
REMARK   97  A    between atoms: _272  and  _274
REMARK   98  A    between atoms: _274  and  _275
REMARK   99  A    between atoms: _274  and  _277
REMARK  100  A    between atoms: _277  and  _278
REMARK  101  A    between atoms: _278  and  _279
REMARK  102  A    between atoms: _284  and  _286
REMARK  103  A    between atoms: _286  and  _287
REMARK  104  A    between atoms: _286  and  _289
REMARK  105  A    between atoms: _289  and  _290
REMARK  106  A    between atoms: _293  and  _295
REMARK  107  A    between atoms: _295  and  _296
REMARK  108  A    between atoms: _299  and  _301
REMARK  109  A    between atoms: _301  and  _302
REMARK  110  A    between atoms: _301  and  _304
REMARK  111  A    between atoms: _307  and  _309
REMARK  112  A    between atoms: _309  and  _310
REMARK  113  A    between atoms: _309  and  _312
REMARK  114  A    between atoms: _312  and  _313
REMARK  115  A    between atoms: _316  and  _318
REMARK  116  A    between atoms: _318  and  _319
REMARK  117  A    between atoms: _321  and  _323
REMARK  118  A    between atoms: _323  and  _324
REMARK  119  A    between atoms: _323  and  _326
REMARK  120  A    between atoms: _326  and  _327
REMARK  121  A    between atoms: _329  and  _331
REMARK  122  A    between atoms: _331  and  _332
REMARK  123  A    between atoms: _331  and  _334
REMARK  124  A    between atoms: _334  and  _335
REMARK  125  A    between atoms: _338  and  _340
REMARK  126  A    between atoms: _340  and  _341
REMARK  127  A    between atoms: _340  and  _343
REMARK  128  A    between atoms: _343  and  _344
REMARK  129  A    between atoms: _347  and  _349
REMARK  130  A    between atoms: _349  and  _350
REMARK  131  A    between atoms: _349  and  _352
REMARK  132  A    between atoms: _352  and  _353
REMARK  133  A    between atoms: _357  and  _358
REMARK  134  A    between atoms: _364  and  _365
REMARK  135  A    between atoms: _370  and  _372
REMARK  136  A    between atoms: _372  and  _373
REMARK  137  A    between atoms: _372  and  _375
REMARK  138  A    between atoms: _375  and  _376
REMARK  139  A    between atoms: _379  and  _381
REMARK  140  A    between atoms: _381  and  _382
REMARK  141  A    between atoms: _381  and  _384
REMARK  142  A    between atoms: _384  and  _385
REMARK  143  A    between atoms: _388  and  _390
REMARK  144  A    between atoms: _390  and  _391
REMARK  145  A    between atoms: _390  and  _393
REMARK  146  A    between atoms: _395  and  _397
REMARK  147  A    between atoms: _397  and  _398
REMARK  148  A    between atoms: _397  and  _400
REMARK  149  A    between atoms: _403  and  _405
REMARK  150  A    between atoms: _405  and  _406
REMARK  151  A    between atoms: _405  and  _408
REMARK  152  A    between atoms: _408  and  _409
REMARK  153  A    between atoms: _419  and  _421
REMARK  154  A    between atoms: _421  and  _422
REMARK  155  A    between atoms: _421  and  _424
REMARK  156  A    between atoms: _424  and  _425
REMARK  157  A    between atoms: _430  and  _432
REMARK  158  A    between atoms: _432  and  _433
REMARK  159  A    between atoms: _432  and  _435
REMARK  160  A    between atoms: _435  and  _436
REMARK  161  A    between atoms: _436  and  _437
REMARK  162  A    between atoms: _437  and  _438
REMARK                            x       y       z     vdW  Elec       q    Type
REMARK                         _______ _______ _______ _____ _____    ______ ____
ROOT
ATOM      1  O   HOH     1      -8.755   9.057   7.905  0.00  0.00    +0.000 OA
ENDROOT
TORSDOF 0
REMARK  Name = ../refined-set-2016/1g48/1g48_pocket.pdb
REMARK  162 active torsions:
REMARK  status: ('A' for Active; 'I' for Inactive)
REMARK    1  A    between atoms: _1  and  _3
REMARK    2  A    between atoms: _3  and  _4
REMARK    3  A    between atoms: _3  and  _6
REMARK    4  A    between atoms: _6  and  _7
REMARK    5  A    between atoms: _17  and  _19
REMARK    6  A    between atoms: _19  and  _20
REMARK    7  A    between atoms: _19  and  _22
REMARK    8  A    between atoms: _22  and  _23
REMARK    9  A    between atoms: _28  and  _29
REMARK   10  A    between atoms: _31  and  _33
REMARK   11  A    between atoms: _33  and  _34
REMARK   12  A    between atoms: _33  and  _36
REMARK   13  A    between atoms: _36  and  _37
REMARK   14  A    between atoms: _43  and  _45
REMARK   15  A    between atoms: _45  and  _46
REMARK   16  A    between atoms: _45  and  _48
REMARK   17  A    between atoms: _48  and  _49
REMARK   18  A    between atoms: _52  and  _53
REMARK   19  A    between atoms: _58  and  _60
REMARK   20  A    between atoms: _60  and  _61
REMARK   21  A    between atoms: _60  and  _63
REMARK   22  A    between atoms: _63  and  _64
REMARK   23  A    between atoms: _69  and  _71
REMARK   24  A    between atoms: _71  and  _72
REMARK   25  A    between atoms: _75  and  _77
REMARK   26  A    between atoms: _77  and  _78
REMARK   27  A    between atoms: _77  and  _80
REMARK   28  A    between atoms: _80  and  _81
REMARK   29  A    between atoms: _86  and  _88
REMARK   30  A    between atoms: _88  and  _89
REMARK   31  A    between atoms: _88  and  _91
REMARK   32  A    between atoms: _91  and  _92
REMARK   33  A    between atoms: _95  and  _97
REMARK   34  A    between atoms: _97  and  _98
REMARK   35  A    between atoms: _97  and  _100
REMARK   36  A    between atoms: _100  and  _101
REMARK   37  A    between atoms: _101  and  _102
REMARK   38  A    between atoms: _107  and  _109
REMARK   39  A    between atoms: _109  and  _110
REMARK   40  A    between atoms: _109  and  _112
REMARK   41  A    between atoms: _112  and  _113
REMARK   42  A    between atoms: _119  and  _121
REMARK   43  A    between atoms: _132  and  _135
REMARK   44  A    between atoms: _135  and  _136
REMARK   45  A    between atoms: _144  and  _145
REMARK   46  A    between atoms: _153  and  _155
REMARK   47  A    between atoms: _155  and  _156
REMARK   48  A    between atoms: _155  and  _158
REMARK   49  A    between atoms: _158  and  _159
REMARK   50  A    between atoms: _159  and  _160
REMARK   51  A    between atoms: _163  and  _165
REMARK   52  A    between atoms: _165  and  _166
REMARK   53  A    between atoms: _165  and  _168
REMARK   54  A    between atoms: _168  and  _169
REMARK   55  A    between atoms: _174  and  _176
REMARK   56  A    between atoms: _176  and  _177
REMARK   57  A    between atoms: _176  and  _179
REMARK   58  A    between atoms: _179  and  _180
REMARK   59  A    between atoms: _180  and  _181
REMARK   60  A    between atoms: _184  and  _186
REMARK   61  A    between atoms: _186  and  _187
REMARK   62  A    between atoms: _186  and  _189
REMARK   63  A    between atoms: _189  and  _190
REMARK   64  A    between atoms: _193  and  _195
REMARK   65  A    between atoms: _195  and  _196
REMARK   66  A    between atoms: _195  and  _198
REMARK   67  A    between atoms: _198  and  _199
REMARK   68  A    between atoms: _200  and  ZN_447
REMARK   69  A    between atoms: _204  and  _206
REMARK   70  A    between atoms: _206  and  _207
REMARK   71  A    between atoms: _206  and  _209
REMARK   72  A    between atoms: _209  and  _210
REMARK   73  A    between atoms: _213  and  _215
REMARK   74  A    between atoms: _215  and  _216
REMARK   75  A    between atoms: _215  and  _218
REMARK   76  A    between atoms: _221  and  _223
REMARK   77  A    between atoms: _223  and  _224
REMARK   78  A    between atoms: _223  and  _226
REMARK   79  A    between atoms: _226  and  _227
REMARK   80  A    between atoms: _232  and  _234
REMARK   81  A    between atoms: _234  and  _235
REMARK   82  A    between atoms: _234  and  _237
REMARK   83  A    between atoms: _240  and  _242
REMARK   84  A    between atoms: _242  and  _243
REMARK   85  A    between atoms: _245  and  _247
REMARK   86  A    between atoms: _247  and  _248
REMARK   87  A    between atoms: _247  and  _250
REMARK   88  A    between atoms: _250  and  _251
REMARK   89  A    between atoms: _251  and  _252
REMARK   90  A    between atoms: _252  and  _253
REMARK   91  A    between atoms: _253  and  _254
REMARK   92  A    between atoms: _258  and  _260
REMARK   93  A    between atoms: _260  and  _261
REMARK   94  A    between atoms: _264  and  _266
REMARK   95  A    between atoms: _266  and  _267
REMARK   96  A    between atoms: _266  and  _269
REMARK   97  A    between atoms: _272  and  _274
REMARK   98  A    between atoms: _274  and  _275
REMARK   99  A    between atoms: _274  and  _277
REMARK  100  A    between atoms: _277  and  _278
REMARK  101  A    between atoms: _278  and  _279
REMARK  102  A    between atoms: _284  and  _286
REMARK  103  A    between atoms: _286  and  _287
REMARK  104  A    between atoms: _286  and  _289
REMARK  105  A    between atoms: _289  and  _290
REMARK  106  A    between atoms: _293  and  _295
REMARK  107  A    between atoms: _295  and  _296
REMARK  108  A    between atoms: _299  and  _301
REMARK  109  A    between atoms: _301  and  _302
REMARK  110  A    between atoms: _301  and  _304
REMARK  111  A    between atoms: _307  and  _309
REMARK  112  A    between atoms: _309  and  _310
REMARK  113  A    between atoms: _309  and  _312
REMARK  114  A    between atoms: _312  and  _313
REMARK  115  A    between atoms: _316  and  _318
REMARK  116  A    between atoms: _318  and  _319
REMARK  117  A    between atoms: _321  and  _323
REMARK  118  A    between atoms: _323  and  _324
REMARK  119  A    between atoms: _323  and  _326
REMARK  120  A    between atoms: _326  and  _327
REMARK  121  A    between atoms: _329  and  _331
REMARK  122  A    between atoms: _331  and  _332
REMARK  123  A    between atoms: _331  and  _334
REMARK  124  A    between atoms: _334  and  _335
REMARK  125  A    between atoms: _338  and  _340
REMARK  126  A    between atoms: _340  and  _341
REMARK  127  A    between atoms: _340  and  _343
REMARK  128  A    between atoms: _343  and  _344
REMARK  129  A    between atoms: _347  and  _349
REMARK  130  A    between atoms: _349  and  _350
REMARK  131  A    between atoms: _349  and  _352
REMARK  132  A    between atoms: _352  and  _353
REMARK  133  A    between atoms: _357  and  _358
REMARK  134  A    between atoms: _364  and  _365
REMARK  135  A    between atoms: _370  and  _372
REMARK  136  A    between atoms: _372  and  _373
REMARK  137  A    between atoms: _372  and  _375
REMARK  138  A    between atoms: _375  and  _376
REMARK  139  A    between atoms: _379  and  _381
REMARK  140  A    between atoms: _381  and  _382
REMARK  141  A    between atoms: _381  and  _384
REMARK  142  A    between atoms: _384  and  _385
REMARK  143  A    between atoms: _388  and  _390
REMARK  144  A    between atoms: _390  and  _391
REMARK  145  A    between atoms: _390  and  _393
REMARK  146  A    between atoms: _395  and  _397
REMARK  147  A    between atoms: _397  and  _398
REMARK  148  A    between atoms: _397  and  _400
REMARK  149  A    between atoms: _403  and  _405
REMARK  150  A    between atoms: _405  and  _406
REMARK  151  A    between atoms: _405  and  _408
REMARK  152  A    between atoms: _408  and  _409
REMARK  153  A    between atoms: _419  and  _421
REMARK  154  A    between atoms: _421  and  _422
REMARK  155  A    between atoms: _421  and  _424
REMARK  156  A    between atoms: _424  and  _425
REMARK  157  A    between atoms: _430  and  _432
REMARK  158  A    between atoms: _432  and  _433
REMARK  159  A    between atoms: _432  and  _435
REMARK  160  A    between atoms: _435  and  _436
REMARK  161  A    between atoms: _436  and  _437
REMARK  162  A    between atoms: _437  and  _438
REMARK                            x       y       z     vdW  Elec       q    Type
REMARK                         _______ _______ _______ _____ _____    ______ ____
ROOT
ATOM      1  O   HOH     1      -0.372  14.618  16.428  0.00  0.00    +0.000 OA
ENDROOT
TORSDOF 0
REMARK  Name = ../refined-set-2016/1g48/1g48_pocket.pdb
REMARK  162 active torsions:
REMARK  status: ('A' for Active; 'I' for Inactive)
REMARK    1  A    between atoms: _1  and  _3
REMARK    2  A    between atoms: _3  and  _4
REMARK    3  A    between atoms: _3  and  _6
REMARK    4  A    between atoms: _6  and  _7
REMARK    5  A    between atoms: _17  and  _19
REMARK    6  A    between atoms: _19  and  _20
REMARK    7  A    between atoms: _19  and  _22
REMARK    8  A    between atoms: _22  and  _23
REMARK    9  A    between atoms: _28  and  _29
REMARK   10  A    between atoms: _31  and  _33
REMARK   11  A    between atoms: _33  and  _34
REMARK   12  A    between atoms: _33  and  _36
REMARK   13  A    between atoms: _36  and  _37
REMARK   14  A    between atoms: _43  and  _45
REMARK   15  A    between atoms: _45  and  _46
REMARK   16  A    between atoms: _45  and  _48
REMARK   17  A    between atoms: _48  and  _49
REMARK   18  A    between atoms: _52  and  _53
REMARK   19  A    between atoms: _58  and  _60
REMARK   20  A    between atoms: _60  and  _61
REMARK   21  A    between atoms: _60  and  _63
REMARK   22  A    between atoms: _63  and  _64
REMARK   23  A    between atoms: _69  and  _71
REMARK   24  A    between atoms: _71  and  _72
REMARK   25  A    between atoms: _75  and  _77
REMARK   26  A    between atoms: _77  and  _78
REMARK   27  A    between atoms: _77  and  _80
REMARK   28  A    between atoms: _80  and  _81
REMARK   29  A    between atoms: _86  and  _88
REMARK   30  A    between atoms: _88  and  _89
REMARK   31  A    between atoms: _88  and  _91
REMARK   32  A    between atoms: _91  and  _92
REMARK   33  A    between atoms: _95  and  _97
REMARK   34  A    between atoms: _97  and  _98
REMARK   35  A    between atoms: _97  and  _100
REMARK   36  A    between atoms: _100  and  _101
REMARK   37  A    between atoms: _101  and  _102
REMARK   38  A    between atoms: _107  and  _109
REMARK   39  A    between atoms: _109  and  _110
REMARK   40  A    between atoms: _109  and  _112
REMARK   41  A    between atoms: _112  and  _113
REMARK   42  A    between atoms: _119  and  _121
REMARK   43  A    between atoms: _132  and  _135
REMARK   44  A    between atoms: _135  and  _136
REMARK   45  A    between atoms: _144  and  _145
REMARK   46  A    between atoms: _153  and  _155
REMARK   47  A    between atoms: _155  and  _156
REMARK   48  A    between atoms: _155  and  _158
REMARK   49  A    between atoms: _158  and  _159
REMARK   50  A    between atoms: _159  and  _160
REMARK   51  A    between atoms: _163  and  _165
REMARK   52  A    between atoms: _165  and  _166
REMARK   53  A    between atoms: _165  and  _168
REMARK   54  A    between atoms: _168  and  _169
REMARK   55  A    between atoms: _174  and  _176
REMARK   56  A    between atoms: _176  and  _177
REMARK   57  A    between atoms: _176  and  _179
REMARK   58  A    between atoms: _179  and  _180
REMARK   59  A    between atoms: _180  and  _181
REMARK   60  A    between atoms: _184  and  _186
REMARK   61  A    between atoms: _186  and  _187
REMARK   62  A    between atoms: _186  and  _189
REMARK   63  A    between atoms: _189  and  _190
REMARK   64  A    between atoms: _193  and  _195
REMARK   65  A    between atoms: _195  and  _196
REMARK   66  A    between atoms: _195  and  _198
REMARK   67  A    between atoms: _198  and  _199
REMARK   68  A    between atoms: _200  and  ZN_447
REMARK   69  A    between atoms: _204  and  _206
REMARK   70  A    between atoms: _206  and  _207
REMARK   71  A    between atoms: _206  and  _209
REMARK   72  A    between atoms: _209  and  _210
REMARK   73  A    between atoms: _213  and  _215
REMARK   74  A    between atoms: _215  and  _216
REMARK   75  A    between atoms: _215  and  _218
REMARK   76  A    between atoms: _221  and  _223
REMARK   77  A    between atoms: _223  and  _224
REMARK   78  A    between atoms: _223  and  _226
REMARK   79  A    between atoms: _226  and  _227
REMARK   80  A    between atoms: _232  and  _234
REMARK   81  A    between atoms: _234  and  _235
REMARK   82  A    between atoms: _234  and  _237
REMARK   83  A    between atoms: _240  and  _242
REMARK   84  A    between atoms: _242  and  _243
REMARK   85  A    between atoms: _245  and  _247
REMARK   86  A    between atoms: _247  and  _248
REMARK   87  A    between atoms: _247  and  _250
REMARK   88  A    between atoms: _250  and  _251
REMARK   89  A    between atoms: _251  and  _252
REMARK   90  A    between atoms: _252  and  _253
REMARK   91  A    between atoms: _253  and  _254
REMARK   92  A    between atoms: _258  and  _260
REMARK   93  A    between atoms: _260  and  _261
REMARK   94  A    between atoms: _264  and  _266
REMARK   95  A    between atoms: _266  and  _267
REMARK   96  A    between atoms: _266  and  _269
REMARK   97  A    between atoms: _272  and  _274
REMARK   98  A    between atoms: _274  and  _275
REMARK   99  A    between atoms: _274  and  _277
REMARK  100  A    between atoms: _277  and  _278
REMARK  101  A    between atoms: _278  and  _279
REMARK  102  A    between atoms: _284  and  _286
REMARK  103  A    between atoms: _286  and  _287
REMARK  104  A    between atoms: _286  and  _289
REMARK  105  A    between atoms: _289  and  _290
REMARK  106  A    between atoms: _293  and  _295
REMARK  107  A    between atoms: _295  and  _296
REMARK  108  A    between atoms: _299  and  _301
REMARK  109  A    between atoms: _301  and  _302
REMARK  110  A    between atoms: _301  and  _304
REMARK  111  A    between atoms: _307  and  _309
REMARK  112  A    between atoms: _309  and  _310
REMARK  113  A    between atoms: _309  and  _312
REMARK  114  A    between atoms: _312  and  _313
REMARK  115  A    between atoms: _316  and  _318
REMARK  116  A    between atoms: _318  and  _319
REMARK  117  A    between atoms: _321  and  _323
REMARK  118  A    between atoms: _323  and  _324
REMARK  119  A    between atoms: _323  and  _326
REMARK  120  A    between atoms: _326  and  _327
REMARK  121  A    between atoms: _329  and  _331
REMARK  122  A    between atoms: _331  and  _332
REMARK  123  A    between atoms: _331  and  _334
REMARK  124  A    between atoms: _334  and  _335
REMARK  125  A    between atoms: _338  and  _340
REMARK  126  A    between atoms: _340  and  _341
REMARK  127  A    between atoms: _340  and  _343
REMARK  128  A    between atoms: _343  and  _344
REMARK  129  A    between atoms: _347  and  _349
REMARK  130  A    between atoms: _349  and  _350
REMARK  131  A    between atoms: _349  and  _352
REMARK  132  A    between atoms: _352  and  _353
REMARK  133  A    between atoms: _357  and  _358
REMARK  134  A    between atoms: _364  and  _365
REMARK  135  A    between atoms: _370  and  _372
REMARK  136  A    between atoms: _372  and  _373
REMARK  137  A    between atoms: _372  and  _375
REMARK  138  A    between atoms: _375  and  _376
REMARK  139  A    between atoms: _379  and  _381
REMARK  140  A    between atoms: _381  and  _382
REMARK  141  A    between atoms: _381  and  _384
REMARK  142  A    between atoms: _384  and  _385
REMARK  143  A    between atoms: _388  and  _390
REMARK  144  A    between atoms: _390  and  _391
REMARK  145  A    between atoms: _390  and  _393
REMARK  146  A    between atoms: _395  and  _397
REMARK  147  A    between atoms: _397  and  _398
REMARK  148  A    between atoms: _397  and  _400
REMARK  149  A    between atoms: _403  and  _405
REMARK  150  A    between atoms: _405  and  _406
REMARK  151  A    between atoms: _405  and  _408
REMARK  152  A    between atoms: _408  and  _409
REMARK  153  A    between atoms: _419  and  _421
REMARK  154  A    between atoms: _421  and  _422
REMARK  155  A    between atoms: _421  and  _424
REMARK  156  A    between atoms: _424  and  _425
REMARK  157  A    between atoms: _430  and  _432
REMARK  158  A    between atoms: _432  and  _433
REMARK  159  A    between atoms: _432  and  _435
REMARK  160  A    between atoms: _435  and  _436
REMARK  161  A    between atoms: _436  and  _437
REMARK  162  A    between atoms: _437  and  _438
REMARK                            x       y       z     vdW  Elec       q    Type
REMARK                         _______ _______ _______ _____ _____    ______ ____
ROOT
ATOM      1  O   HOH     1      -1.462   3.391  10.838  0.00  0.00    +0.000 OA
ENDROOT
TORSDOF 0
REMARK  Name = ../refined-set-2016/1g48/1g48_pocket.pdb
REMARK  162 active torsions:
REMARK  status: ('A' for Active; 'I' for Inactive)
REMARK    1  A    between atoms: _1  and  _3
REMARK    2  A    between atoms: _3  and  _4
REMARK    3  A    between atoms: _3  and  _6
REMARK    4  A    between atoms: _6  and  _7
REMARK    5  A    between atoms: _17  and  _19
REMARK    6  A    between atoms: _19  and  _20
REMARK    7  A    between atoms: _19  and  _22
REMARK    8  A    between atoms: _22  and  _23
REMARK    9  A    between atoms: _28  and  _29
REMARK   10  A    between atoms: _31  and  _33
REMARK   11  A    between atoms: _33  and  _34
REMARK   12  A    between atoms: _33  and  _36
REMARK   13  A    between atoms: _36  and  _37
REMARK   14  A    between atoms: _43  and  _45
REMARK   15  A    between atoms: _45  and  _46
REMARK   16  A    between atoms: _45  and  _48
REMARK   17  A    between atoms: _48  and  _49
REMARK   18  A    between atoms: _52  and  _53
REMARK   19  A    between atoms: _58  and  _60
REMARK   20  A    between atoms: _60  and  _61
REMARK   21  A    between atoms: _60  and  _63
REMARK   22  A    between atoms: _63  and  _64
REMARK   23  A    between atoms: _69  and  _71
REMARK   24  A    between atoms: _71  and  _72
REMARK   25  A    between atoms: _75  and  _77
REMARK   26  A    between atoms: _77  and  _78
REMARK   27  A    between atoms: _77  and  _80
REMARK   28  A    between atoms: _80  and  _81
REMARK   29  A    between atoms: _86  and  _88
REMARK   30  A    between atoms: _88  and  _89
REMARK   31  A    between atoms: _88  and  _91
REMARK   32  A    between atoms: _91  and  _92
REMARK   33  A    between atoms: _95  and  _97
REMARK   34  A    between atoms: _97  and  _98
REMARK   35  A    between atoms: _97  and  _100
REMARK   36  A    between atoms: _100  and  _101
REMARK   37  A    between atoms: _101  and  _102
REMARK   38  A    between atoms: _107  and  _109
REMARK   39  A    between atoms: _109  and  _110
REMARK   40  A    between atoms: _109  and  _112
REMARK   41  A    between atoms: _112  and  _113
REMARK   42  A    between atoms: _119  and  _121
REMARK   43  A    between atoms: _132  and  _135
REMARK   44  A    between atoms: _135  and  _136
REMARK   45  A    between atoms: _144  and  _145
REMARK   46  A    between atoms: _153  and  _155
REMARK   47  A    between atoms: _155  and  _156
REMARK   48  A    between atoms: _155  and  _158
REMARK   49  A    between atoms: _158  and  _159
REMARK   50  A    between atoms: _159  and  _160
REMARK   51  A    between atoms: _163  and  _165
REMARK   52  A    between atoms: _165  and  _166
REMARK   53  A    between atoms: _165  and  _168
REMARK   54  A    between atoms: _168  and  _169
REMARK   55  A    between atoms: _174  and  _176
REMARK   56  A    between atoms: _176  and  _177
REMARK   57  A    between atoms: _176  and  _179
REMARK   58  A    between atoms: _179  and  _180
REMARK   59  A    between atoms: _180  and  _181
REMARK   60  A    between atoms: _184  and  _186
REMARK   61  A    between atoms: _186  and  _187
REMARK   62  A    between atoms: _186  and  _189
REMARK   63  A    between atoms: _189  and  _190
REMARK   64  A    between atoms: _193  and  _195
REMARK   65  A    between atoms: _195  and  _196
REMARK   66  A    between atoms: _195  and  _198
REMARK   67  A    between atoms: _198  and  _199
REMARK   68  A    between atoms: _200  and  ZN_447
REMARK   69  A    between atoms: _204  and  _206
REMARK   70  A    between atoms: _206  and  _207
REMARK   71  A    between atoms: _206  and  _209
REMARK   72  A    between atoms: _209  and  _210
REMARK   73  A    between atoms: _213  and  _215
REMARK   74  A    between atoms: _215  and  _216
REMARK   75  A    between atoms: _215  and  _218
REMARK   76  A    between atoms: _221  and  _223
REMARK   77  A    between atoms: _223  and  _224
REMARK   78  A    between atoms: _223  and  _226
REMARK   79  A    between atoms: _226  and  _227
REMARK   80  A    between atoms: _232  and  _234
REMARK   81  A    between atoms: _234  and  _235
REMARK   82  A    between atoms: _234  and  _237
REMARK   83  A    between atoms: _240  and  _242
REMARK   84  A    between atoms: _242  and  _243
REMARK   85  A    between atoms: _245  and  _247
REMARK   86  A    between atoms: _247  and  _248
REMARK   87  A    between atoms: _247  and  _250
REMARK   88  A    between atoms: _250  and  _251
REMARK   89  A    between atoms: _251  and  _252
REMARK   90  A    between atoms: _252  and  _253
REMARK   91  A    between atoms: _253  and  _254
REMARK   92  A    between atoms: _258  and  _260
REMARK   93  A    between atoms: _260  and  _261
REMARK   94  A    between atoms: _264  and  _266
REMARK   95  A    between atoms: _266  and  _267
REMARK   96  A    between atoms: _266  and  _269
REMARK   97  A    between atoms: _272  and  _274
REMARK   98  A    between atoms: _274  and  _275
REMARK   99  A    between atoms: _274  and  _277
REMARK  100  A    between atoms: _277  and  _278
REMARK  101  A    between atoms: _278  and  _279
REMARK  102  A    between atoms: _284  and  _286
REMARK  103  A    between atoms: _286  and  _287
REMARK  104  A    between atoms: _286  and  _289
REMARK  105  A    between atoms: _289  and  _290
REMARK  106  A    between atoms: _293  and  _295
REMARK  107  A    between atoms: _295  and  _296
REMARK  108  A    between atoms: _299  and  _301
REMARK  109  A    between atoms: _301  and  _302
REMARK  110  A    between atoms: _301  and  _304
REMARK  111  A    between atoms: _307  and  _309
REMARK  112  A    between atoms: _309  and  _310
REMARK  113  A    between atoms: _309  and  _312
REMARK  114  A    between atoms: _312  and  _313
REMARK  115  A    between atoms: _316  and  _318
REMARK  116  A    between atoms: _318  and  _319
REMARK  117  A    between atoms: _321  and  _323
REMARK  118  A    between atoms: _323  and  _324
REMARK  119  A    between atoms: _323  and  _326
REMARK  120  A    between atoms: _326  and  _327
REMARK  121  A    between atoms: _329  and  _331
REMARK  122  A    between atoms: _331  and  _332
REMARK  123  A    between atoms: _331  and  _334
REMARK  124  A    between atoms: _334  and  _335
REMARK  125  A    between atoms: _338  and  _340
REMARK  126  A    between atoms: _340  and  _341
REMARK  127  A    between atoms: _340  and  _343
REMARK  128  A    between atoms: _343  and  _344
REMARK  129  A    between atoms: _347  and  _349
REMARK  130  A    between atoms: _349  and  _350
REMARK  131  A    between atoms: _349  and  _352
REMARK  132  A    between atoms: _352  and  _353
REMARK  133  A    between atoms: _357  and  _358
REMARK  134  A    between atoms: _364  and  _365
REMARK  135  A    between atoms: _370  and  _372
REMARK  136  A    between atoms: _372  and  _373
REMARK  137  A    between atoms: _372  and  _375
REMARK  138  A    between atoms: _375  and  _376
REMARK  139  A    between atoms: _379  and  _381
REMARK  140  A    between atoms: _381  and  _382
REMARK  141  A    between atoms: _381  and  _384
REMARK  142  A    between atoms: _384  and  _385
REMARK  143  A    between atoms: _388  and  _390
REMARK  144  A    between atoms: _390  and  _391
REMARK  145  A    between atoms: _390  and  _393
REMARK  146  A    between atoms: _395  and  _397
REMARK  147  A    between atoms: _397  and  _398
REMARK  148  A    between atoms: _397  and  _400
REMARK  149  A    between atoms: _403  and  _405
REMARK  150  A    between atoms: _405  and  _406
REMARK  151  A    between atoms: _405  and  _408
REMARK  152  A    between atoms: _408  and  _409
REMARK  153  A    between atoms: _419  and  _421
REMARK  154  A    between atoms: _421  and  _422
REMARK  155  A    between atoms: _421  and  _424
REMARK  156  A    between atoms: _424  and  _425
REMARK  157  A    between atoms: _430  and  _432
REMARK  158  A    between atoms: _432  and  _433
REMARK  159  A    between atoms: _432  and  _435
REMARK  160  A    between atoms: _435  and  _436
REMARK  161  A    between atoms: _436  and  _437
REMARK  162  A    between atoms: _437  and  _438
REMARK                            x       y       z     vdW  Elec       q    Type
REMARK                         _______ _______ _______ _____ _____    ______ ____
ROOT
ATOM      1  O   HOH     1      -5.835  12.307   9.782  0.00  0.00    +0.000 OA
ENDROOT
TORSDOF 0
REMARK  Name = ../refined-set-2016/1g48/1g48_pocket.pdb
REMARK  162 active torsions:
REMARK  status: ('A' for Active; 'I' for Inactive)
REMARK    1  A    between atoms: _1  and  _3
REMARK    2  A    between atoms: _3  and  _4
REMARK    3  A    between atoms: _3  and  _6
REMARK    4  A    between atoms: _6  and  _7
REMARK    5  A    between atoms: _17  and  _19
REMARK    6  A    between atoms: _19  and  _20
REMARK    7  A    between atoms: _19  and  _22
REMARK    8  A    between atoms: _22  and  _23
REMARK    9  A    between atoms: _28  and  _29
REMARK   10  A    between atoms: _31  and  _33
REMARK   11  A    between atoms: _33  and  _34
REMARK   12  A    between atoms: _33  and  _36
REMARK   13  A    between atoms: _36  and  _37
REMARK   14  A    between atoms: _43  and  _45
REMARK   15  A    between atoms: _45  and  _46
REMARK   16  A    between atoms: _45  and  _48
REMARK   17  A    between atoms: _48  and  _49
REMARK   18  A    between atoms: _52  and  _53
REMARK   19  A    between atoms: _58  and  _60
REMARK   20  A    between atoms: _60  and  _61
REMARK   21  A    between atoms: _60  and  _63
REMARK   22  A    between atoms: _63  and  _64
REMARK   23  A    between atoms: _69  and  _71
REMARK   24  A    between atoms: _71  and  _72
REMARK   25  A    between atoms: _75  and  _77
REMARK   26  A    between atoms: _77  and  _78
REMARK   27  A    between atoms: _77  and  _80
REMARK   28  A    between atoms: _80  and  _81
REMARK   29  A    between atoms: _86  and  _88
REMARK   30  A    between atoms: _88  and  _89
REMARK   31  A    between atoms: _88  and  _91
REMARK   32  A    between atoms: _91  and  _92
REMARK   33  A    between atoms: _95  and  _97
REMARK   34  A    between atoms: _97  and  _98
REMARK   35  A    between atoms: _97  and  _100
REMARK   36  A    between atoms: _100  and  _101
REMARK   37  A    between atoms: _101  and  _102
REMARK   38  A    between atoms: _107  and  _109
REMARK   39  A    between atoms: _109  and  _110
REMARK   40  A    between atoms: _109  and  _112
REMARK   41  A    between atoms: _112  and  _113
REMARK   42  A    between atoms: _119  and  _121
REMARK   43  A    between atoms: _132  and  _135
REMARK   44  A    between atoms: _135  and  _136
REMARK   45  A    between atoms: _144  and  _145
REMARK   46  A    between atoms: _153  and  _155
REMARK   47  A    between atoms: _155  and  _156
REMARK   48  A    between atoms: _155  and  _158
REMARK   49  A    between atoms: _158  and  _159
REMARK   50  A    between atoms: _159  and  _160
REMARK   51  A    between atoms: _163  and  _165
REMARK   52  A    between atoms: _165  and  _166
REMARK   53  A    between atoms: _165  and  _168
REMARK   54  A    between atoms: _168  and  _169
REMARK   55  A    between atoms: _174  and  _176
REMARK   56  A    between atoms: _176  and  _177
REMARK   57  A    between atoms: _176  and  _179
REMARK   58  A    between atoms: _179  and  _180
REMARK   59  A    between atoms: _180  and  _181
REMARK   60  A    between atoms: _184  and  _186
REMARK   61  A    between atoms: _186  and  _187
REMARK   62  A    between atoms: _186  and  _189
REMARK   63  A    between atoms: _189  and  _190
REMARK   64  A    between atoms: _193  and  _195
REMARK   65  A    between atoms: _195  and  _196
REMARK   66  A    between atoms: _195  and  _198
REMARK   67  A    between atoms: _198  and  _199
REMARK   68  A    between atoms: _200  and  ZN_447
REMARK   69  A    between atoms: _204  and  _206
REMARK   70  A    between atoms: _206  and  _207
REMARK   71  A    between atoms: _206  and  _209
REMARK   72  A    between atoms: _209  and  _210
REMARK   73  A    between atoms: _213  and  _215
REMARK   74  A    between atoms: _215  and  _216
REMARK   75  A    between atoms: _215  and  _218
REMARK   76  A    between atoms: _221  and  _223
REMARK   77  A    between atoms: _223  and  _224
REMARK   78  A    between atoms: _223  and  _226
REMARK   79  A    between atoms: _226  and  _227
REMARK   80  A    between atoms: _232  and  _234
REMARK   81  A    between atoms: _234  and  _235
REMARK   82  A    between atoms: _234  and  _237
REMARK   83  A    between atoms: _240  and  _242
REMARK   84  A    between atoms: _242  and  _243
REMARK   85  A    between atoms: _245  and  _247
REMARK   86  A    between atoms: _247  and  _248
REMARK   87  A    between atoms: _247  and  _250
REMARK   88  A    between atoms: _250  and  _251
REMARK   89  A    between atoms: _251  and  _252
REMARK   90  A    between atoms: _252  and  _253
REMARK   91  A    between atoms: _253  and  _254
REMARK   92  A    between atoms: _258  and  _260
REMARK   93  A    between atoms: _260  and  _261
REMARK   94  A    between atoms: _264  and  _266
REMARK   95  A    between atoms: _266  and  _267
REMARK   96  A    between atoms: _266  and  _269
REMARK   97  A    between atoms: _272  and  _274
REMARK   98  A    between atoms: _274  and  _275
REMARK   99  A    between atoms: _274  and  _277
REMARK  100  A    between atoms: _277  and  _278
REMARK  101  A    between atoms: _278  and  _279
REMARK  102  A    between atoms: _284  and  _286
REMARK  103  A    between atoms: _286  and  _287
REMARK  104  A    between atoms: _286  and  _289
REMARK  105  A    between atoms: _289  and  _290
REMARK  106  A    between atoms: _293  and  _295
REMARK  107  A    between atoms: _295  and  _296
REMARK  108  A    between atoms: _299  and  _301
REMARK  109  A    between atoms: _301  and  _302
REMARK  110  A    between atoms: _301  and  _304
REMARK  111  A    between atoms: _307  and  _309
REMARK  112  A    between atoms: _309  and  _310
REMARK  113  A    between atoms: _309  and  _312
REMARK  114  A    between atoms: _312  and  _313
REMARK  115  A    between atoms: _316  and  _318
REMARK  116  A    between atoms: _318  and  _319
REMARK  117  A    between atoms: _321  and  _323
REMARK  118  A    between atoms: _323  and  _324
REMARK  119  A    between atoms: _323  and  _326
REMARK  120  A    between atoms: _326  and  _327
REMARK  121  A    between atoms: _329  and  _331
REMARK  122  A    between atoms: _331  and  _332
REMARK  123  A    between atoms: _331  and  _334
REMARK  124  A    between atoms: _334  and  _335
REMARK  125  A    between atoms: _338  and  _340
REMARK  126  A    between atoms: _340  and  _341
REMARK  127  A    between atoms: _340  and  _343
REMARK  128  A    between atoms: _343  and  _344
REMARK  129  A    between atoms: _347  and  _349
REMARK  130  A    between atoms: _349  and  _350
REMARK  131  A    between atoms: _349  and  _352
REMARK  132  A    between atoms: _352  and  _353
REMARK  133  A    between atoms: _357  and  _358
REMARK  134  A    between atoms: _364  and  _365
REMARK  135  A    between atoms: _370  and  _372
REMARK  136  A    between atoms: _372  and  _373
REMARK  137  A    between atoms: _372  and  _375
REMARK  138  A    between atoms: _375  and  _376
REMARK  139  A    between atoms: _379  and  _381
REMARK  140  A    between atoms: _381  and  _382
REMARK  141  A    between atoms: _381  and  _384
REMARK  142  A    between atoms: _384  and  _385
REMARK  143  A    between atoms: _388  and  _390
REMARK  144  A    between atoms: _390  and  _391
REMARK  145  A    between atoms: _390  and  _393
REMARK  146  A    between atoms: _395  and  _397
REMARK  147  A    between atoms: _397  and  _398
REMARK  148  A    between atoms: _397  and  _400
REMARK  149  A    between atoms: _403  and  _405
REMARK  150  A    between atoms: _405  and  _406
REMARK  151  A    between atoms: _405  and  _408
REMARK  152  A    between atoms: _408  and  _409
REMARK  153  A    between atoms: _419  and  _421
REMARK  154  A    between atoms: _421  and  _422
REMARK  155  A    between atoms: _421  and  _424
REMARK  156  A    between atoms: _424  and  _425
REMARK  157  A    between atoms: _430  and  _432
REMARK  158  A    between atoms: _432  and  _433
REMARK  159  A    between atoms: _432  and  _435
REMARK  160  A    between atoms: _435  and  _436
REMARK  161  A    between atoms: _436  and  _437
REMARK  162  A    between atoms: _437  and  _438
REMARK                            x       y       z     vdW  Elec       q    Type
REMARK                         _______ _______ _______ _____ _____    ______ ____
ROOT
ATOM      1  O   HOH     1      -3.091  16.158  12.197  0.00  0.00    +0.000 OA
ENDROOT
TORSDOF 0
REMARK  Name = ../refined-set-2016/1g48/1g48_pocket.pdb
REMARK  162 active torsions:
REMARK  status: ('A' for Active; 'I' for Inactive)
REMARK    1  A    between atoms: _1  and  _3
REMARK    2  A    between atoms: _3  and  _4
REMARK    3  A    between atoms: _3  and  _6
REMARK    4  A    between atoms: _6  and  _7
REMARK    5  A    between atoms: _17  and  _19
REMARK    6  A    between atoms: _19  and  _20
REMARK    7  A    between atoms: _19  and  _22
REMARK    8  A    between atoms: _22  and  _23
REMARK    9  A    between atoms: _28  and  _29
REMARK   10  A    between atoms: _31  and  _33
REMARK   11  A    between atoms: _33  and  _34
REMARK   12  A    between atoms: _33  and  _36
REMARK   13  A    between atoms: _36  and  _37
REMARK   14  A    between atoms: _43  and  _45
REMARK   15  A    between atoms: _45  and  _46
REMARK   16  A    between atoms: _45  and  _48
REMARK   17  A    between atoms: _48  and  _49
REMARK   18  A    between atoms: _52  and  _53
REMARK   19  A    between atoms: _58  and  _60
REMARK   20  A    between atoms: _60  and  _61
REMARK   21  A    between atoms: _60  and  _63
REMARK   22  A    between atoms: _63  and  _64
REMARK   23  A    between atoms: _69  and  _71
REMARK   24  A    between atoms: _71  and  _72
REMARK   25  A    between atoms: _75  and  _77
REMARK   26  A    between atoms: _77  and  _78
REMARK   27  A    between atoms: _77  and  _80
REMARK   28  A    between atoms: _80  and  _81
REMARK   29  A    between atoms: _86  and  _88
REMARK   30  A    between atoms: _88  and  _89
REMARK   31  A    between atoms: _88  and  _91
REMARK   32  A    between atoms: _91  and  _92
REMARK   33  A    between atoms: _95  and  _97
REMARK   34  A    between atoms: _97  and  _98
REMARK   35  A    between atoms: _97  and  _100
REMARK   36  A    between atoms: _100  and  _101
REMARK   37  A    between atoms: _101  and  _102
REMARK   38  A    between atoms: _107  and  _109
REMARK   39  A    between atoms: _109  and  _110
REMARK   40  A    between atoms: _109  and  _112
REMARK   41  A    between atoms: _112  and  _113
REMARK   42  A    between atoms: _119  and  _121
REMARK   43  A    between atoms: _132  and  _135
REMARK   44  A    between atoms: _135  and  _136
REMARK   45  A    between atoms: _144  and  _145
REMARK   46  A    between atoms: _153  and  _155
REMARK   47  A    between atoms: _155  and  _156
REMARK   48  A    between atoms: _155  and  _158
REMARK   49  A    between atoms: _158  and  _159
REMARK   50  A    between atoms: _159  and  _160
REMARK   51  A    between atoms: _163  and  _165
REMARK   52  A    between atoms: _165  and  _166
REMARK   53  A    between atoms: _165  and  _168
REMARK   54  A    between atoms: _168  and  _169
REMARK   55  A    between atoms: _174  and  _176
REMARK   56  A    between atoms: _176  and  _177
REMARK   57  A    between atoms: _176  and  _179
REMARK   58  A    between atoms: _179  and  _180
REMARK   59  A    between atoms: _180  and  _181
REMARK   60  A    between atoms: _184  and  _186
REMARK   61  A    between atoms: _186  and  _187
REMARK   62  A    between atoms: _186  and  _189
REMARK   63  A    between atoms: _189  and  _190
REMARK   64  A    between atoms: _193  and  _195
REMARK   65  A    between atoms: _195  and  _196
REMARK   66  A    between atoms: _195  and  _198
REMARK   67  A    between atoms: _198  and  _199
REMARK   68  A    between atoms: _200  and  ZN_447
REMARK   69  A    between atoms: _204  and  _206
REMARK   70  A    between atoms: _206  and  _207
REMARK   71  A    between atoms: _206  and  _209
REMARK   72  A    between atoms: _209  and  _210
REMARK   73  A    between atoms: _213  and  _215
REMARK   74  A    between atoms: _215  and  _216
REMARK   75  A    between atoms: _215  and  _218
REMARK   76  A    between atoms: _221  and  _223
REMARK   77  A    between atoms: _223  and  _224
REMARK   78  A    between atoms: _223  and  _226
REMARK   79  A    between atoms: _226  and  _227
REMARK   80  A    between atoms: _232  and  _234
REMARK   81  A    between atoms: _234  and  _235
REMARK   82  A    between atoms: _234  and  _237
REMARK   83  A    between atoms: _240  and  _242
REMARK   84  A    between atoms: _242  and  _243
REMARK   85  A    between atoms: _245  and  _247
REMARK   86  A    between atoms: _247  and  _248
REMARK   87  A    between atoms: _247  and  _250
REMARK   88  A    between atoms: _250  and  _251
REMARK   89  A    between atoms: _251  and  _252
REMARK   90  A    between atoms: _252  and  _253
REMARK   91  A    between atoms: _253  and  _254
REMARK   92  A    between atoms: _258  and  _260
REMARK   93  A    between atoms: _260  and  _261
REMARK   94  A    between atoms: _264  and  _266
REMARK   95  A    between atoms: _266  and  _267
REMARK   96  A    between atoms: _266  and  _269
REMARK   97  A    between atoms: _272  and  _274
REMARK   98  A    between atoms: _274  and  _275
REMARK   99  A    between atoms: _274  and  _277
REMARK  100  A    between atoms: _277  and  _278
REMARK  101  A    between atoms: _278  and  _279
REMARK  102  A    between atoms: _284  and  _286
REMARK  103  A    between atoms: _286  and  _287
REMARK  104  A    between atoms: _286  and  _289
REMARK  105  A    between atoms: _289  and  _290
REMARK  106  A    between atoms: _293  and  _295
REMARK  107  A    between atoms: _295  and  _296
REMARK  108  A    between atoms: _299  and  _301
REMARK  109  A    between atoms: _301  and  _302
REMARK  110  A    between atoms: _301  and  _304
REMARK  111  A    between atoms: _307  and  _309
REMARK  112  A    between atoms: _309  and  _310
REMARK  113  A    between atoms: _309  and  _312
REMARK  114  A    between atoms: _312  and  _313
REMARK  115  A    between atoms: _316  and  _318
REMARK  116  A    between atoms: _318  and  _319
REMARK  117  A    between atoms: _321  and  _323
REMARK  118  A    between atoms: _323  and  _324
REMARK  119  A    between atoms: _323  and  _326
REMARK  120  A    between atoms: _326  and  _327
REMARK  121  A    between atoms: _329  and  _331
REMARK  122  A    between atoms: _331  and  _332
REMARK  123  A    between atoms: _331  and  _334
REMARK  124  A    between atoms: _334  and  _335
REMARK  125  A    between atoms: _338  and  _340
REMARK  126  A    between atoms: _340  and  _341
REMARK  127  A    between atoms: _340  and  _343
REMARK  128  A    between atoms: _343  and  _344
REMARK  129  A    between atoms: _347  and  _349
REMARK  130  A    between atoms: _349  and  _350
REMARK  131  A    between atoms: _349  and  _352
REMARK  132  A    between atoms: _352  and  _353
REMARK  133  A    between atoms: _357  and  _358
REMARK  134  A    between atoms: _364  and  _365
REMARK  135  A    between atoms: _370  and  _372
REMARK  136  A    between atoms: _372  and  _373
REMARK  137  A    between atoms: _372  and  _375
REMARK  138  A    between atoms: _375  and  _376
REMARK  139  A    between atoms: _379  and  _381
REMARK  140  A    between atoms: _381  and  _382
REMARK  141  A    between atoms: _381  and  _384
REMARK  142  A    between atoms: _384  and  _385
REMARK  143  A    between atoms: _388  and  _390
REMARK  144  A    between atoms: _390  and  _391
REMARK  145  A    between atoms: _390  and  _393
REMARK  146  A    between atoms: _395  and  _397
REMARK  147  A    between atoms: _397  and  _398
REMARK  148  A    between atoms: _397  and  _400
REMARK  149  A    between atoms: _403  and  _405
REMARK  150  A    between atoms: _405  and  _406
REMARK  151  A    between atoms: _405  and  _408
REMARK  152  A    between atoms: _408  and  _409
REMARK  153  A    between atoms: _419  and  _421
REMARK  154  A    between atoms: _421  and  _422
REMARK  155  A    between atoms: _421  and  _424
REMARK  156  A    between atoms: _424  and  _425
REMARK  157  A    between atoms: _430  and  _432
REMARK  158  A    between atoms: _432  and  _433
REMARK  159  A    between atoms: _432  and  _435
REMARK  160  A    between atoms: _435  and  _436
REMARK  161  A    between atoms: _436  and  _437
REMARK  162  A    between atoms: _437  and  _438
REMARK                            x       y       z     vdW  Elec       q    Type
REMARK                         _______ _______ _______ _____ _____    ______ ____
ROOT
ATOM      1  O   HOH     1      -4.559   4.372  10.275  0.00  0.00    +0.000 OA
ENDROOT
TORSDOF 0
REMARK  Name = ../refined-set-2016/1g48/1g48_pocket.pdb
REMARK  162 active torsions:
REMARK  status: ('A' for Active; 'I' for Inactive)
REMARK    1  A    between atoms: _1  and  _3
REMARK    2  A    between atoms: _3  and  _4
REMARK    3  A    between atoms: _3  and  _6
REMARK    4  A    between atoms: _6  and  _7
REMARK    5  A    between atoms: _17  and  _19
REMARK    6  A    between atoms: _19  and  _20
REMARK    7  A    between atoms: _19  and  _22
REMARK    8  A    between atoms: _22  and  _23
REMARK    9  A    between atoms: _28  and  _29
REMARK   10  A    between atoms: _31  and  _33
REMARK   11  A    between atoms: _33  and  _34
REMARK   12  A    between atoms: _33  and  _36
REMARK   13  A    between atoms: _36  and  _37
REMARK   14  A    between atoms: _43  and  _45
REMARK   15  A    between atoms: _45  and  _46
REMARK   16  A    between atoms: _45  and  _48
REMARK   17  A    between atoms: _48  and  _49
REMARK   18  A    between atoms: _52  and  _53
REMARK   19  A    between atoms: _58  and  _60
REMARK   20  A    between atoms: _60  and  _61
REMARK   21  A    between atoms: _60  and  _63
REMARK   22  A    between atoms: _63  and  _64
REMARK   23  A    between atoms: _69  and  _71
REMARK   24  A    between atoms: _71  and  _72
REMARK   25  A    between atoms: _75  and  _77
REMARK   26  A    between atoms: _77  and  _78
REMARK   27  A    between atoms: _77  and  _80
REMARK   28  A    between atoms: _80  and  _81
REMARK   29  A    between atoms: _86  and  _88
REMARK   30  A    between atoms: _88  and  _89
REMARK   31  A    between atoms: _88  and  _91
REMARK   32  A    between atoms: _91  and  _92
REMARK   33  A    between atoms: _95  and  _97
REMARK   34  A    between atoms: _97  and  _98
REMARK   35  A    between atoms: _97  and  _100
REMARK   36  A    between atoms: _100  and  _101
REMARK   37  A    between atoms: _101  and  _102
REMARK   38  A    between atoms: _107  and  _109
REMARK   39  A    between atoms: _109  and  _110
REMARK   40  A    between atoms: _109  and  _112
REMARK   41  A    between atoms: _112  and  _113
REMARK   42  A    between atoms: _119  and  _121
REMARK   43  A    between atoms: _132  and  _135
REMARK   44  A    between atoms: _135  and  _136
REMARK   45  A    between atoms: _144  and  _145
REMARK   46  A    between atoms: _153  and  _155
REMARK   47  A    between atoms: _155  and  _156
REMARK   48  A    between atoms: _155  and  _158
REMARK   49  A    between atoms: _158  and  _159
REMARK   50  A    between atoms: _159  and  _160
REMARK   51  A    between atoms: _163  and  _165
REMARK   52  A    between atoms: _165  and  _166
REMARK   53  A    between atoms: _165  and  _168
REMARK   54  A    between atoms: _168  and  _169
REMARK   55  A    between atoms: _174  and  _176
REMARK   56  A    between atoms: _176  and  _177
REMARK   57  A    between atoms: _176  and  _179
REMARK   58  A    between atoms: _179  and  _180
REMARK   59  A    between atoms: _180  and  _181
REMARK   60  A    between atoms: _184  and  _186
REMARK   61  A    between atoms: _186  and  _187
REMARK   62  A    between atoms: _186  and  _189
REMARK   63  A    between atoms: _189  and  _190
REMARK   64  A    between atoms: _193  and  _195
REMARK   65  A    between atoms: _195  and  _196
REMARK   66  A    between atoms: _195  and  _198
REMARK   67  A    between atoms: _198  and  _199
REMARK   68  A    between atoms: _200  and  ZN_447
REMARK   69  A    between atoms: _204  and  _206
REMARK   70  A    between atoms: _206  and  _207
REMARK   71  A    between atoms: _206  and  _209
REMARK   72  A    between atoms: _209  and  _210
REMARK   73  A    between atoms: _213  and  _215
REMARK   74  A    between atoms: _215  and  _216
REMARK   75  A    between atoms: _215  and  _218
REMARK   76  A    between atoms: _221  and  _223
REMARK   77  A    between atoms: _223  and  _224
REMARK   78  A    between atoms: _223  and  _226
REMARK   79  A    between atoms: _226  and  _227
REMARK   80  A    between atoms: _232  and  _234
REMARK   81  A    between atoms: _234  and  _235
REMARK   82  A    between atoms: _234  and  _237
REMARK   83  A    between atoms: _240  and  _242
REMARK   84  A    between atoms: _242  and  _243
REMARK   85  A    between atoms: _245  and  _247
REMARK   86  A    between atoms: _247  and  _248
REMARK   87  A    between atoms: _247  and  _250
REMARK   88  A    between atoms: _250  and  _251
REMARK   89  A    between atoms: _251  and  _252
REMARK   90  A    between atoms: _252  and  _253
REMARK   91  A    between atoms: _253  and  _254
REMARK   92  A    between atoms: _258  and  _260
REMARK   93  A    between atoms: _260  and  _261
REMARK   94  A    between atoms: _264  and  _266
REMARK   95  A    between atoms: _266  and  _267
REMARK   96  A    between atoms: _266  and  _269
REMARK   97  A    between atoms: _272  and  _274
REMARK   98  A    between atoms: _274  and  _275
REMARK   99  A    between atoms: _274  and  _277
REMARK  100  A    between atoms: _277  and  _278
REMARK  101  A    between atoms: _278  and  _279
REMARK  102  A    between atoms: _284  and  _286
REMARK  103  A    between atoms: _286  and  _287
REMARK  104  A    between atoms: _286  and  _289
REMARK  105  A    between atoms: _289  and  _290
REMARK  106  A    between atoms: _293  and  _295
REMARK  107  A    between atoms: _295  and  _296
REMARK  108  A    between atoms: _299  and  _301
REMARK  109  A    between atoms: _301  and  _302
REMARK  110  A    between atoms: _301  and  _304
REMARK  111  A    between atoms: _307  and  _309
REMARK  112  A    between atoms: _309  and  _310
REMARK  113  A    between atoms: _309  and  _312
REMARK  114  A    between atoms: _312  and  _313
REMARK  115  A    between atoms: _316  and  _318
REMARK  116  A    between atoms: _318  and  _319
REMARK  117  A    between atoms: _321  and  _323
REMARK  118  A    between atoms: _323  and  _324
REMARK  119  A    between atoms: _323  and  _326
REMARK  120  A    between atoms: _326  and  _327
REMARK  121  A    between atoms: _329  and  _331
REMARK  122  A    between atoms: _331  and  _332
REMARK  123  A    between atoms: _331  and  _334
REMARK  124  A    between atoms: _334  and  _335
REMARK  125  A    between atoms: _338  and  _340
REMARK  126  A    between atoms: _340  and  _341
REMARK  127  A    between atoms: _340  and  _343
REMARK  128  A    between atoms: _343  and  _344
REMARK  129  A    between atoms: _347  and  _349
REMARK  130  A    between atoms: _349  and  _350
REMARK  131  A    between atoms: _349  and  _352
REMARK  132  A    between atoms: _352  and  _353
REMARK  133  A    between atoms: _357  and  _358
REMARK  134  A    between atoms: _364  and  _365
REMARK  135  A    between atoms: _370  and  _372
REMARK  136  A    between atoms: _372  and  _373
REMARK  137  A    between atoms: _372  and  _375
REMARK  138  A    between atoms: _375  and  _376
REMARK  139  A    between atoms: _379  and  _381
REMARK  140  A    between atoms: _381  and  _382
REMARK  141  A    between atoms: _381  and  _384
REMARK  142  A    between atoms: _384  and  _385
REMARK  143  A    between atoms: _388  and  _390
REMARK  144  A    between atoms: _390  and  _391
REMARK  145  A    between atoms: _390  and  _393
REMARK  146  A    between atoms: _395  and  _397
REMARK  147  A    between atoms: _397  and  _398
REMARK  148  A    between atoms: _397  and  _400
REMARK  149  A    between atoms: _403  and  _405
REMARK  150  A    between atoms: _405  and  _406
REMARK  151  A    between atoms: _405  and  _408
REMARK  152  A    between atoms: _408  and  _409
REMARK  153  A    between atoms: _419  and  _421
REMARK  154  A    between atoms: _421  and  _422
REMARK  155  A    between atoms: _421  and  _424
REMARK  156  A    between atoms: _424  and  _425
REMARK  157  A    between atoms: _430  and  _432
REMARK  158  A    between atoms: _432  and  _433
REMARK  159  A    between atoms: _432  and  _435
REMARK  160  A    between atoms: _435  and  _436
REMARK  161  A    between atoms: _436  and  _437
REMARK  162  A    between atoms: _437  and  _438
REMARK                            x       y       z     vdW  Elec       q    Type
REMARK                         _______ _______ _______ _____ _____    ______ ____
ROOT
ATOM      1  O   HOH     1      -4.792  -1.125  11.253  0.00  0.00    +0.000 OA
ENDROOT
TORSDOF 0
REMARK  Name = ../refined-set-2016/1g48/1g48_pocket.pdb
REMARK  162 active torsions:
REMARK  status: ('A' for Active; 'I' for Inactive)
REMARK    1  A    between atoms: _1  and  _3
REMARK    2  A    between atoms: _3  and  _4
REMARK    3  A    between atoms: _3  and  _6
REMARK    4  A    between atoms: _6  and  _7
REMARK    5  A    between atoms: _17  and  _19
REMARK    6  A    between atoms: _19  and  _20
REMARK    7  A    between atoms: _19  and  _22
REMARK    8  A    between atoms: _22  and  _23
REMARK    9  A    between atoms: _28  and  _29
REMARK   10  A    between atoms: _31  and  _33
REMARK   11  A    between atoms: _33  and  _34
REMARK   12  A    between atoms: _33  and  _36
REMARK   13  A    between atoms: _36  and  _37
REMARK   14  A    between atoms: _43  and  _45
REMARK   15  A    between atoms: _45  and  _46
REMARK   16  A    between atoms: _45  and  _48
REMARK   17  A    between atoms: _48  and  _49
REMARK   18  A    between atoms: _52  and  _53
REMARK   19  A    between atoms: _58  and  _60
REMARK   20  A    between atoms: _60  and  _61
REMARK   21  A    between atoms: _60  and  _63
REMARK   22  A    between atoms: _63  and  _64
REMARK   23  A    between atoms: _69  and  _71
REMARK   24  A    between atoms: _71  and  _72
REMARK   25  A    between atoms: _75  and  _77
REMARK   26  A    between atoms: _77  and  _78
REMARK   27  A    between atoms: _77  and  _80
REMARK   28  A    between atoms: _80  and  _81
REMARK   29  A    between atoms: _86  and  _88
REMARK   30  A    between atoms: _88  and  _89
REMARK   31  A    between atoms: _88  and  _91
REMARK   32  A    between atoms: _91  and  _92
REMARK   33  A    between atoms: _95  and  _97
REMARK   34  A    between atoms: _97  and  _98
REMARK   35  A    between atoms: _97  and  _100
REMARK   36  A    between atoms: _100  and  _101
REMARK   37  A    between atoms: _101  and  _102
REMARK   38  A    between atoms: _107  and  _109
REMARK   39  A    between atoms: _109  and  _110
REMARK   40  A    between atoms: _109  and  _112
REMARK   41  A    between atoms: _112  and  _113
REMARK   42  A    between atoms: _119  and  _121
REMARK   43  A    between atoms: _132  and  _135
REMARK   44  A    between atoms: _135  and  _136
REMARK   45  A    between atoms: _144  and  _145
REMARK   46  A    between atoms: _153  and  _155
REMARK   47  A    between atoms: _155  and  _156
REMARK   48  A    between atoms: _155  and  _158
REMARK   49  A    between atoms: _158  and  _159
REMARK   50  A    between atoms: _159  and  _160
REMARK   51  A    between atoms: _163  and  _165
REMARK   52  A    between atoms: _165  and  _166
REMARK   53  A    between atoms: _165  and  _168
REMARK   54  A    between atoms: _168  and  _169
REMARK   55  A    between atoms: _174  and  _176
REMARK   56  A    between atoms: _176  and  _177
REMARK   57  A    between atoms: _176  and  _179
REMARK   58  A    between atoms: _179  and  _180
REMARK   59  A    between atoms: _180  and  _181
REMARK   60  A    between atoms: _184  and  _186
REMARK   61  A    between atoms: _186  and  _187
REMARK   62  A    between atoms: _186  and  _189
REMARK   63  A    between atoms: _189  and  _190
REMARK   64  A    between atoms: _193  and  _195
REMARK   65  A    between atoms: _195  and  _196
REMARK   66  A    between atoms: _195  and  _198
REMARK   67  A    between atoms: _198  and  _199
REMARK   68  A    between atoms: _200  and  ZN_447
REMARK   69  A    between atoms: _204  and  _206
REMARK   70  A    between atoms: _206  and  _207
REMARK   71  A    between atoms: _206  and  _209
REMARK   72  A    between atoms: _209  and  _210
REMARK   73  A    between atoms: _213  and  _215
REMARK   74  A    between atoms: _215  and  _216
REMARK   75  A    between atoms: _215  and  _218
REMARK   76  A    between atoms: _221  and  _223
REMARK   77  A    between atoms: _223  and  _224
REMARK   78  A    between atoms: _223  and  _226
REMARK   79  A    between atoms: _226  and  _227
REMARK   80  A    between atoms: _232  and  _234
REMARK   81  A    between atoms: _234  and  _235
REMARK   82  A    between atoms: _234  and  _237
REMARK   83  A    between atoms: _240  and  _242
REMARK   84  A    between atoms: _242  and  _243
REMARK   85  A    between atoms: _245  and  _247
REMARK   86  A    between atoms: _247  and  _248
REMARK   87  A    between atoms: _247  and  _250
REMARK   88  A    between atoms: _250  and  _251
REMARK   89  A    between atoms: _251  and  _252
REMARK   90  A    between atoms: _252  and  _253
REMARK   91  A    between atoms: _253  and  _254
REMARK   92  A    between atoms: _258  and  _260
REMARK   93  A    between atoms: _260  and  _261
REMARK   94  A    between atoms: _264  and  _266
REMARK   95  A    between atoms: _266  and  _267
REMARK   96  A    between atoms: _266  and  _269
REMARK   97  A    between atoms: _272  and  _274
REMARK   98  A    between atoms: _274  and  _275
REMARK   99  A    between atoms: _274  and  _277
REMARK  100  A    between atoms: _277  and  _278
REMARK  101  A    between atoms: _278  and  _279
REMARK  102  A    between atoms: _284  and  _286
REMARK  103  A    between atoms: _286  and  _287
REMARK  104  A    between atoms: _286  and  _289
REMARK  105  A    between atoms: _289  and  _290
REMARK  106  A    between atoms: _293  and  _295
REMARK  107  A    between atoms: _295  and  _296
REMARK  108  A    between atoms: _299  and  _301
REMARK  109  A    between atoms: _301  and  _302
REMARK  110  A    between atoms: _301  and  _304
REMARK  111  A    between atoms: _307  and  _309
REMARK  112  A    between atoms: _309  and  _310
REMARK  113  A    between atoms: _309  and  _312
REMARK  114  A    between atoms: _312  and  _313
REMARK  115  A    between atoms: _316  and  _318
REMARK  116  A    between atoms: _318  and  _319
REMARK  117  A    between atoms: _321  and  _323
REMARK  118  A    between atoms: _323  and  _324
REMARK  119  A    between atoms: _323  and  _326
REMARK  120  A    between atoms: _326  and  _327
REMARK  121  A    between atoms: _329  and  _331
REMARK  122  A    between atoms: _331  and  _332
REMARK  123  A    between atoms: _331  and  _334
REMARK  124  A    between atoms: _334  and  _335
REMARK  125  A    between atoms: _338  and  _340
REMARK  126  A    between atoms: _340  and  _341
REMARK  127  A    between atoms: _340  and  _343
REMARK  128  A    between atoms: _343  and  _344
REMARK  129  A    between atoms: _347  and  _349
REMARK  130  A    between atoms: _349  and  _350
REMARK  131  A    between atoms: _349  and  _352
REMARK  132  A    between atoms: _352  and  _353
REMARK  133  A    between atoms: _357  and  _358
REMARK  134  A    between atoms: _364  and  _365
REMARK  135  A    between atoms: _370  and  _372
REMARK  136  A    between atoms: _372  and  _373
REMARK  137  A    between atoms: _372  and  _375
REMARK  138  A    between atoms: _375  and  _376
REMARK  139  A    between atoms: _379  and  _381
REMARK  140  A    between atoms: _381  and  _382
REMARK  141  A    between atoms: _381  and  _384
REMARK  142  A    between atoms: _384  and  _385
REMARK  143  A    between atoms: _388  and  _390
REMARK  144  A    between atoms: _390  and  _391
REMARK  145  A    between atoms: _390  and  _393
REMARK  146  A    between atoms: _395  and  _397
REMARK  147  A    between atoms: _397  and  _398
REMARK  148  A    between atoms: _397  and  _400
REMARK  149  A    between atoms: _403  and  _405
REMARK  150  A    between atoms: _405  and  _406
REMARK  151  A    between atoms: _405  and  _408
REMARK  152  A    between atoms: _408  and  _409
REMARK  153  A    between atoms: _419  and  _421
REMARK  154  A    between atoms: _421  and  _422
REMARK  155  A    between atoms: _421  and  _424
REMARK  156  A    between atoms: _424  and  _425
REMARK  157  A    between atoms: _430  and  _432
REMARK  158  A    between atoms: _432  and  _433
REMARK  159  A    between atoms: _432  and  _435
REMARK  160  A    between atoms: _435  and  _436
REMARK  161  A    between atoms: _436  and  _437
REMARK  162  A    between atoms: _437  and  _438
REMARK                            x       y       z     vdW  Elec       q    Type
REMARK                         _______ _______ _______ _____ _____    ______ ____
ROOT
ATOM      1  O   HOH     1       3.127   3.525   8.215  0.00  0.00    +0.000 OA
ENDROOT
TORSDOF 0
