REMARK  Name = ../refined-set-2016/2aoe/2aoe_pocket.pdb
REMARK  228 active torsions:
REMARK  status: ('A' for Active; 'I' for Inactive)
REMARK    1  A    between atoms: _1  and  _3
REMARK    2  A    between atoms: _3  and  _4
REMARK    3  A    between atoms: _3  and  _6
REMARK    4  A    between atoms: _6  and  _7
REMARK    5  A    between atoms: _7  and  _8
REMARK    6  A    between atoms: _8  and  _9
REMARK    7  A    between atoms: _18  and  _20
REMARK    8  A    between atoms: _20  and  _21
REMARK    9  A    between atoms: _20  and  _23
REMARK   10  A    between atoms: _23  and  _24
REMARK   11  A    between atoms: _27  and  _29
REMARK   12  A    between atoms: _29  and  _30
REMARK   13  A    between atoms: _29  and  _32
REMARK   14  A    between atoms: _32  and  _33
REMARK   15  A    between atoms: _36  and  _38
REMARK   16  A    between atoms: _38  and  _39
REMARK   17  A    between atoms: _38  and  _41
REMARK   18  A    between atoms: _41  and  _42
REMARK   19  A    between atoms: _45  and  _47
REMARK   20  A    between atoms: _47  and  _48
REMARK   21  A    between atoms: _50  and  _52
REMARK   22  A    between atoms: _52  and  _53
REMARK   23  A    between atoms: _56  and  _58
REMARK   24  A    between atoms: _58  and  _59
REMARK   25  A    between atoms: _58  and  _61
REMARK   26  A    between atoms: _61  and  _62
REMARK   27  A    between atoms: _65  and  _67
REMARK   28  A    between atoms: _67  and  _68
REMARK   29  A    between atoms: _67  and  _70
REMARK   30  A    between atoms: _70  and  _71
REMARK   31  A    between atoms: _74  and  _76
REMARK   32  A    between atoms: _76  and  _77
REMARK   33  A    between atoms: _76  and  _79
REMARK   34  A    between atoms: _79  and  _80
REMARK   35  A    between atoms: _83  and  _85
REMARK   36  A    between atoms: _85  and  _86
REMARK   37  A    between atoms: _85  and  _88
REMARK   38  A    between atoms: _91  and  _93
REMARK   39  A    between atoms: _93  and  _94
REMARK   40  A    between atoms: _93  and  _96
REMARK   41  A    between atoms: _97  and  _98
REMARK   42  A    between atoms: _98  and  _99
REMARK   43  A    between atoms: _99  and  _100
REMARK   44  A    between atoms: _104  and  _106
REMARK   45  A    between atoms: _106  and  _107
REMARK   46  A    between atoms: _106  and  _109
REMARK   47  A    between atoms: _109  and  _110
REMARK   48  A    between atoms: _110  and  _111
REMARK   49  A    between atoms: _113  and  _115
REMARK   50  A    between atoms: _115  and  _116
REMARK   51  A    between atoms: _115  and  _118
REMARK   52  A    between atoms: _118  and  _119
REMARK   53  A    between atoms: _122  and  _124
REMARK   54  A    between atoms: _124  and  _125
REMARK   55  A    between atoms: _127  and  _129
REMARK   56  A    between atoms: _129  and  _130
REMARK   57  A    between atoms: _132  and  _134
REMARK   58  A    between atoms: _134  and  _135
REMARK   59  A    between atoms: _134  and  _137
REMARK   60  A    between atoms: _137  and  _138
REMARK   61  A    between atoms: _141  and  _143
REMARK   62  A    between atoms: _143  and  _144
REMARK   63  A    between atoms: _146  and  _148
REMARK   64  A    between atoms: _148  and  _149
REMARK   65  A    between atoms: _151  and  _153
REMARK   66  A    between atoms: _153  and  _154
REMARK   67  A    between atoms: _153  and  _156
REMARK   68  A    between atoms: _156  and  _157
REMARK   69  A    between atoms: _163  and  _165
REMARK   70  A    between atoms: _165  and  _166
REMARK   71  A    between atoms: _165  and  _168
REMARK   72  A    between atoms: _168  and  _169
REMARK   73  A    between atoms: _172  and  _174
REMARK   74  A    between atoms: _174  and  _175
REMARK   75  A    between atoms: _174  and  _177
REMARK   76  A    between atoms: _180  and  _182
REMARK   77  A    between atoms: _182  and  _183
REMARK   78  A    between atoms: _182  and  _185
REMARK   79  A    between atoms: _185  and  _186
REMARK   80  A    between atoms: _189  and  _191
REMARK   81  A    between atoms: _191  and  _192
REMARK   82  A    between atoms: _191  and  _194
REMARK   83  A    between atoms: _194  and  _195
REMARK   84  A    between atoms: _199  and  _200
REMARK   85  A    between atoms: _205  and  _207
REMARK   86  A    between atoms: _207  and  _208
REMARK   87  A    between atoms: _211  and  _213
REMARK   88  A    between atoms: _213  and  _214
REMARK   89  A    between atoms: _213  and  _216
REMARK   90  A    between atoms: _216  and  _217
REMARK   91  A    between atoms: _222  and  _224
REMARK   92  A    between atoms: _224  and  _225
REMARK   93  A    between atoms: _224  and  _227
REMARK   94  A    between atoms: _227  and  _228
REMARK   95  A    between atoms: _231  and  _233
REMARK   96  A    between atoms: _233  and  _234
REMARK   97  A    between atoms: _233  and  _236
REMARK   98  A    between atoms: _236  and  _237
REMARK   99  A    between atoms: _240  and  _242
REMARK  100  A    between atoms: _242  and  _243
REMARK  101  A    between atoms: _245  and  _247
REMARK  102  A    between atoms: _247  and  _248
REMARK  103  A    between atoms: _247  and  _250
REMARK  104  A    between atoms: _250  and  _251
REMARK  105  A    between atoms: _251  and  _252
REMARK  106  A    between atoms: _252  and  _253
REMARK  107  A    between atoms: _262  and  _264
REMARK  108  A    between atoms: _264  and  _265
REMARK  109  A    between atoms: _264  and  _267
REMARK  110  A    between atoms: _267  and  _268
REMARK  111  A    between atoms: _273  and  _275
REMARK  112  A    between atoms: _275  and  _276
REMARK  113  A    between atoms: _275  and  _278
REMARK  114  A    between atoms: _278  and  _279
REMARK  115  A    between atoms: _279  and  _280
REMARK  116  A    between atoms: _280  and  _281
REMARK  117  A    between atoms: _290  and  _292
REMARK  118  A    between atoms: _292  and  _293
REMARK  119  A    between atoms: _292  and  _295
REMARK  120  A    between atoms: _295  and  _296
REMARK  121  A    between atoms: _299  and  _301
REMARK  122  A    between atoms: _301  and  _302
REMARK  123  A    between atoms: _301  and  _304
REMARK  124  A    between atoms: _304  and  _305
REMARK  125  A    between atoms: _308  and  _310
REMARK  126  A    between atoms: _310  and  _311
REMARK  127  A    between atoms: _310  and  _313
REMARK  128  A    between atoms: _313  and  _314
REMARK  129  A    between atoms: _317  and  _319
REMARK  130  A    between atoms: _319  and  _320
REMARK  131  A    between atoms: _322  and  _324
REMARK  132  A    between atoms: _324  and  _325
REMARK  133  A    between atoms: _328  and  _330
REMARK  134  A    between atoms: _330  and  _331
REMARK  135  A    between atoms: _330  and  _333
REMARK  136  A    between atoms: _333  and  _334
REMARK  137  A    between atoms: _337  and  _339
REMARK  138  A    between atoms: _339  and  _340
REMARK  139  A    between atoms: _339  and  _342
REMARK  140  A    between atoms: _342  and  _343
REMARK  141  A    between atoms: _346  and  _348
REMARK  142  A    between atoms: _348  and  _349
REMARK  143  A    between atoms: _348  and  _351
REMARK  144  A    between atoms: _351  and  _352
REMARK  145  A    between atoms: _355  and  _357
REMARK  146  A    between atoms: _357  and  _358
REMARK  147  A    between atoms: _357  and  _360
REMARK  148  A    between atoms: _364  and  _365
REMARK  149  A    between atoms: _370  and  _372
REMARK  150  A    between atoms: _372  and  _373
REMARK  151  A    between atoms: _372  and  _375
REMARK  152  A    between atoms: _375  and  _376
REMARK  153  A    between atoms: _376  and  _377
REMARK  154  A    between atoms: _377  and  _378
REMARK  155  A    between atoms: _378  and  _379
REMARK  156  A    between atoms: _383  and  _385
REMARK  157  A    between atoms: _385  and  _386
REMARK  158  A    between atoms: _385  and  _388
REMARK  159  A    between atoms: _388  and  _389
REMARK  160  A    between atoms: _389  and  _390
REMARK  161  A    between atoms: _392  and  _394
REMARK  162  A    between atoms: _394  and  _395
REMARK  163  A    between atoms: _394  and  _397
REMARK  164  A    between atoms: _397  and  _398
REMARK  165  A    between atoms: _401  and  _403
REMARK  166  A    between atoms: _403  and  _404
REMARK  167  A    between atoms: _406  and  _408
REMARK  168  A    between atoms: _408  and  _409
REMARK  169  A    between atoms: _411  and  _413
REMARK  170  A    between atoms: _413  and  _414
REMARK  171  A    between atoms: _413  and  _416
REMARK  172  A    between atoms: _416  and  _417
REMARK  173  A    between atoms: _420  and  _422
REMARK  174  A    between atoms: _422  and  _423
REMARK  175  A    between atoms: _425  and  _427
REMARK  176  A    between atoms: _427  and  _428
REMARK  177  A    between atoms: _430  and  _432
REMARK  178  A    between atoms: _432  and  _433
REMARK  179  A    between atoms: _432  and  _435
REMARK  180  A    between atoms: _435  and  _436
REMARK  181  A    between atoms: _442  and  _444
REMARK  182  A    between atoms: _444  and  _445
REMARK  183  A    between atoms: _444  and  _447
REMARK  184  A    between atoms: _447  and  _448
REMARK  185  A    between atoms: _451  and  _453
REMARK  186  A    between atoms: _453  and  _454
REMARK  187  A    between atoms: _453  and  _456
REMARK  188  A    between atoms: _459  and  _461
REMARK  189  A    between atoms: _461  and  _462
REMARK  190  A    between atoms: _461  and  _464
REMARK  191  A    between atoms: _464  and  _465
REMARK  192  A    between atoms: _465  and  _466
REMARK  193  A    between atoms: _471  and  _473
REMARK  194  A    between atoms: _473  and  _474
REMARK  195  A    between atoms: _473  and  _476
REMARK  196  A    between atoms: _476  and  _477
REMARK  197  A    between atoms: _481  and  _482
REMARK  198  A    between atoms: _487  and  _489
REMARK  199  A    between atoms: _489  and  _490
REMARK  200  A    between atoms: _489  and  _492
REMARK  201  A    between atoms: _492  and  _493
REMARK  202  A    between atoms: _497  and  _498
REMARK  203  A    between atoms: _503  and  _505
REMARK  204  A    between atoms: _505  and  _506
REMARK  205  A    between atoms: _509  and  _511
REMARK  206  A    between atoms: _511  and  _512
REMARK  207  A    between atoms: _511  and  _514
REMARK  208  A    between atoms: _514  and  _515
REMARK  209  A    between atoms: _520  and  _522
REMARK  210  A    between atoms: _522  and  _523
REMARK  211  A    between atoms: _522  and  _525
REMARK  212  A    between atoms: _525  and  _526
REMARK  213  A    between atoms: _529  and  _531
REMARK  214  A    between atoms: _531  and  _532
REMARK  215  A    between atoms: _531  and  _534
REMARK  216  A    between atoms: _534  and  _535
REMARK  217  A    between atoms: _538  and  _540
REMARK  218  A    between atoms: _540  and  _541
REMARK  219  A    between atoms: _543  and  _545
REMARK  220  A    between atoms: _545  and  _546
REMARK  221  A    between atoms: _545  and  _548
REMARK  222  A    between atoms: _548  and  _549
REMARK  223  A    between atoms: _549  and  _550
REMARK  224  A    between atoms: _550  and  _551
REMARK  225  A    between atoms: _560  and  _562
REMARK  226  A    between atoms: _562  and  _563
REMARK  227  A    between atoms: _562  and  _565
REMARK  228  A    between atoms: _565  and  _566
REMARK                            x       y       z     vdW  Elec       q    Type
REMARK                         _______ _______ _______ _____ _____    ______ ____
ROOT
ATOM      1  NE  ARG A   1       5.624  20.440  15.388  0.00  0.00    -0.265 N 
ATOM      2  HE  ARG A   1       5.873  20.336  16.392  0.00  0.00    +0.259 HD
ATOM      3  CZ  ARG A   1       5.813  19.407  14.581  0.00  0.00    +0.342 C 
ATOM      4  NH2 ARG A   1       6.314  18.297  15.100  0.00  0.00    -0.292 N 
ATOM      5 HH21 ARG A   1       6.546  18.255  16.113  0.00  0.00    +0.255 HD
ATOM      6 HH22 ARG A   1       6.475  17.467  14.495  0.00  0.00    +0.255 HD
ATOM      7  NH1 ARG A   1       5.524  19.455  13.283  0.00  0.00    -0.292 N 
ATOM      8 HH11 ARG A   1       5.135  20.326  12.869  0.00  0.00    +0.255 HD
ATOM      9 HH12 ARG A   1       5.687  18.622  12.683  0.00  0.00    +0.255 HD
ENDROOT
BRANCH   1  10
ATOM     10  CD  ARG A   1       5.079  21.727  14.931  0.00  0.00    +0.174 C 
BRANCH  10  11
ATOM     11  CG  ARG A   1       4.521  22.543  16.069  0.00  0.00    +0.045 C 
BRANCH  11  12
ATOM     12  CB  ARG A   1       4.113  23.931  15.674  0.00  0.00    +0.029 C 
BRANCH  12  13
ATOM     13  CA  ARG A   1       3.536  24.716  16.866  0.00  0.00    +0.133 C 
BRANCH  13  14
ATOM     14  N   ARG A   1       2.331  24.066  17.356  0.00  0.00    -0.239 NA
ATOM     15  H   ARG A   1       1.987  23.200  16.895  0.00  0.00    +0.142 HD
ENDBRANCH  13  14
BRANCH  13  16
ATOM     16  C   ARG A   1       3.260  26.136  16.368  0.00  0.00    +0.224 C 
ATOM     17  O   ARG A   1       2.257  26.314  15.653  0.00  0.00    -0.287 OA
ENDBRANCH  13  16
ENDBRANCH  12  13
ENDBRANCH  11  12
ENDBRANCH  10  11
ENDBRANCH   1  10
TORSDOF 6
REMARK  Name = ../refined-set-2016/2aoe/2aoe_pocket.pdb
REMARK  228 active torsions:
REMARK  status: ('A' for Active; 'I' for Inactive)
REMARK    1  A    between atoms: _1  and  _3
REMARK    2  A    between atoms: _3  and  _4
REMARK    3  A    between atoms: _3  and  _6
REMARK    4  A    between atoms: _6  and  _7
REMARK    5  A    between atoms: _7  and  _8
REMARK    6  A    between atoms: _8  and  _9
REMARK    7  A    between atoms: _18  and  _20
REMARK    8  A    between atoms: _20  and  _21
REMARK    9  A    between atoms: _20  and  _23
REMARK   10  A    between atoms: _23  and  _24
REMARK   11  A    between atoms: _27  and  _29
REMARK   12  A    between atoms: _29  and  _30
REMARK   13  A    between atoms: _29  and  _32
REMARK   14  A    between atoms: _32  and  _33
REMARK   15  A    between atoms: _36  and  _38
REMARK   16  A    between atoms: _38  and  _39
REMARK   17  A    between atoms: _38  and  _41
REMARK   18  A    between atoms: _41  and  _42
REMARK   19  A    between atoms: _45  and  _47
REMARK   20  A    between atoms: _47  and  _48
REMARK   21  A    between atoms: _50  and  _52
REMARK   22  A    between atoms: _52  and  _53
REMARK   23  A    between atoms: _56  and  _58
REMARK   24  A    between atoms: _58  and  _59
REMARK   25  A    between atoms: _58  and  _61
REMARK   26  A    between atoms: _61  and  _62
REMARK   27  A    between atoms: _65  and  _67
REMARK   28  A    between atoms: _67  and  _68
REMARK   29  A    between atoms: _67  and  _70
REMARK   30  A    between atoms: _70  and  _71
REMARK   31  A    between atoms: _74  and  _76
REMARK   32  A    between atoms: _76  and  _77
REMARK   33  A    between atoms: _76  and  _79
REMARK   34  A    between atoms: _79  and  _80
REMARK   35  A    between atoms: _83  and  _85
REMARK   36  A    between atoms: _85  and  _86
REMARK   37  A    between atoms: _85  and  _88
REMARK   38  A    between atoms: _91  and  _93
REMARK   39  A    between atoms: _93  and  _94
REMARK   40  A    between atoms: _93  and  _96
REMARK   41  A    between atoms: _97  and  _98
REMARK   42  A    between atoms: _98  and  _99
REMARK   43  A    between atoms: _99  and  _100
REMARK   44  A    between atoms: _104  and  _106
REMARK   45  A    between atoms: _106  and  _107
REMARK   46  A    between atoms: _106  and  _109
REMARK   47  A    between atoms: _109  and  _110
REMARK   48  A    between atoms: _110  and  _111
REMARK   49  A    between atoms: _113  and  _115
REMARK   50  A    between atoms: _115  and  _116
REMARK   51  A    between atoms: _115  and  _118
REMARK   52  A    between atoms: _118  and  _119
REMARK   53  A    between atoms: _122  and  _124
REMARK   54  A    between atoms: _124  and  _125
REMARK   55  A    between atoms: _127  and  _129
REMARK   56  A    between atoms: _129  and  _130
REMARK   57  A    between atoms: _132  and  _134
REMARK   58  A    between atoms: _134  and  _135
REMARK   59  A    between atoms: _134  and  _137
REMARK   60  A    between atoms: _137  and  _138
REMARK   61  A    between atoms: _141  and  _143
REMARK   62  A    between atoms: _143  and  _144
REMARK   63  A    between atoms: _146  and  _148
REMARK   64  A    between atoms: _148  and  _149
REMARK   65  A    between atoms: _151  and  _153
REMARK   66  A    between atoms: _153  and  _154
REMARK   67  A    between atoms: _153  and  _156
REMARK   68  A    between atoms: _156  and  _157
REMARK   69  A    between atoms: _163  and  _165
REMARK   70  A    between atoms: _165  and  _166
REMARK   71  A    between atoms: _165  and  _168
REMARK   72  A    between atoms: _168  and  _169
REMARK   73  A    between atoms: _172  and  _174
REMARK   74  A    between atoms: _174  and  _175
REMARK   75  A    between atoms: _174  and  _177
REMARK   76  A    between atoms: _180  and  _182
REMARK   77  A    between atoms: _182  and  _183
REMARK   78  A    between atoms: _182  and  _185
REMARK   79  A    between atoms: _185  and  _186
REMARK   80  A    between atoms: _189  and  _191
REMARK   81  A    between atoms: _191  and  _192
REMARK   82  A    between atoms: _191  and  _194
REMARK   83  A    between atoms: _194  and  _195
REMARK   84  A    between atoms: _199  and  _200
REMARK   85  A    between atoms: _205  and  _207
REMARK   86  A    between atoms: _207  and  _208
REMARK   87  A    between atoms: _211  and  _213
REMARK   88  A    between atoms: _213  and  _214
REMARK   89  A    between atoms: _213  and  _216
REMARK   90  A    between atoms: _216  and  _217
REMARK   91  A    between atoms: _222  and  _224
REMARK   92  A    between atoms: _224  and  _225
REMARK   93  A    between atoms: _224  and  _227
REMARK   94  A    between atoms: _227  and  _228
REMARK   95  A    between atoms: _231  and  _233
REMARK   96  A    between atoms: _233  and  _234
REMARK   97  A    between atoms: _233  and  _236
REMARK   98  A    between atoms: _236  and  _237
REMARK   99  A    between atoms: _240  and  _242
REMARK  100  A    between atoms: _242  and  _243
REMARK  101  A    between atoms: _245  and  _247
REMARK  102  A    between atoms: _247  and  _248
REMARK  103  A    between atoms: _247  and  _250
REMARK  104  A    between atoms: _250  and  _251
REMARK  105  A    between atoms: _251  and  _252
REMARK  106  A    between atoms: _252  and  _253
REMARK  107  A    between atoms: _262  and  _264
REMARK  108  A    between atoms: _264  and  _265
REMARK  109  A    between atoms: _264  and  _267
REMARK  110  A    between atoms: _267  and  _268
REMARK  111  A    between atoms: _273  and  _275
REMARK  112  A    between atoms: _275  and  _276
REMARK  113  A    between atoms: _275  and  _278
REMARK  114  A    between atoms: _278  and  _279
REMARK  115  A    between atoms: _279  and  _280
REMARK  116  A    between atoms: _280  and  _281
REMARK  117  A    between atoms: _290  and  _292
REMARK  118  A    between atoms: _292  and  _293
REMARK  119  A    between atoms: _292  and  _295
REMARK  120  A    between atoms: _295  and  _296
REMARK  121  A    between atoms: _299  and  _301
REMARK  122  A    between atoms: _301  and  _302
REMARK  123  A    between atoms: _301  and  _304
REMARK  124  A    between atoms: _304  and  _305
REMARK  125  A    between atoms: _308  and  _310
REMARK  126  A    between atoms: _310  and  _311
REMARK  127  A    between atoms: _310  and  _313
REMARK  128  A    between atoms: _313  and  _314
REMARK  129  A    between atoms: _317  and  _319
REMARK  130  A    between atoms: _319  and  _320
REMARK  131  A    between atoms: _322  and  _324
REMARK  132  A    between atoms: _324  and  _325
REMARK  133  A    between atoms: _328  and  _330
REMARK  134  A    between atoms: _330  and  _331
REMARK  135  A    between atoms: _330  and  _333
REMARK  136  A    between atoms: _333  and  _334
REMARK  137  A    between atoms: _337  and  _339
REMARK  138  A    between atoms: _339  and  _340
REMARK  139  A    between atoms: _339  and  _342
REMARK  140  A    between atoms: _342  and  _343
REMARK  141  A    between atoms: _346  and  _348
REMARK  142  A    between atoms: _348  and  _349
REMARK  143  A    between atoms: _348  and  _351
REMARK  144  A    between atoms: _351  and  _352
REMARK  145  A    between atoms: _355  and  _357
REMARK  146  A    between atoms: _357  and  _358
REMARK  147  A    between atoms: _357  and  _360
REMARK  148  A    between atoms: _364  and  _365
REMARK  149  A    between atoms: _370  and  _372
REMARK  150  A    between atoms: _372  and  _373
REMARK  151  A    between atoms: _372  and  _375
REMARK  152  A    between atoms: _375  and  _376
REMARK  153  A    between atoms: _376  and  _377
REMARK  154  A    between atoms: _377  and  _378
REMARK  155  A    between atoms: _378  and  _379
REMARK  156  A    between atoms: _383  and  _385
REMARK  157  A    between atoms: _385  and  _386
REMARK  158  A    between atoms: _385  and  _388
REMARK  159  A    between atoms: _388  and  _389
REMARK  160  A    between atoms: _389  and  _390
REMARK  161  A    between atoms: _392  and  _394
REMARK  162  A    between atoms: _394  and  _395
REMARK  163  A    between atoms: _394  and  _397
REMARK  164  A    between atoms: _397  and  _398
REMARK  165  A    between atoms: _401  and  _403
REMARK  166  A    between atoms: _403  and  _404
REMARK  167  A    between atoms: _406  and  _408
REMARK  168  A    between atoms: _408  and  _409
REMARK  169  A    between atoms: _411  and  _413
REMARK  170  A    between atoms: _413  and  _414
REMARK  171  A    between atoms: _413  and  _416
REMARK  172  A    between atoms: _416  and  _417
REMARK  173  A    between atoms: _420  and  _422
REMARK  174  A    between atoms: _422  and  _423
REMARK  175  A    between atoms: _425  and  _427
REMARK  176  A    between atoms: _427  and  _428
REMARK  177  A    between atoms: _430  and  _432
REMARK  178  A    between atoms: _432  and  _433
REMARK  179  A    between atoms: _432  and  _435
REMARK  180  A    between atoms: _435  and  _436
REMARK  181  A    between atoms: _442  and  _444
REMARK  182  A    between atoms: _444  and  _445
REMARK  183  A    between atoms: _444  and  _447
REMARK  184  A    between atoms: _447  and  _448
REMARK  185  A    between atoms: _451  and  _453
REMARK  186  A    between atoms: _453  and  _454
REMARK  187  A    between atoms: _453  and  _456
REMARK  188  A    between atoms: _459  and  _461
REMARK  189  A    between atoms: _461  and  _462
REMARK  190  A    between atoms: _461  and  _464
REMARK  191  A    between atoms: _464  and  _465
REMARK  192  A    between atoms: _465  and  _466
REMARK  193  A    between atoms: _471  and  _473
REMARK  194  A    between atoms: _473  and  _474
REMARK  195  A    between atoms: _473  and  _476
REMARK  196  A    between atoms: _476  and  _477
REMARK  197  A    between atoms: _481  and  _482
REMARK  198  A    between atoms: _487  and  _489
REMARK  199  A    between atoms: _489  and  _490
REMARK  200  A    between atoms: _489  and  _492
REMARK  201  A    between atoms: _492  and  _493
REMARK  202  A    between atoms: _497  and  _498
REMARK  203  A    between atoms: _503  and  _505
REMARK  204  A    between atoms: _505  and  _506
REMARK  205  A    between atoms: _509  and  _511
REMARK  206  A    between atoms: _511  and  _512
REMARK  207  A    between atoms: _511  and  _514
REMARK  208  A    between atoms: _514  and  _515
REMARK  209  A    between atoms: _520  and  _522
REMARK  210  A    between atoms: _522  and  _523
REMARK  211  A    between atoms: _522  and  _525
REMARK  212  A    between atoms: _525  and  _526
REMARK  213  A    between atoms: _529  and  _531
REMARK  214  A    between atoms: _531  and  _532
REMARK  215  A    between atoms: _531  and  _534
REMARK  216  A    between atoms: _534  and  _535
REMARK  217  A    between atoms: _538  and  _540
REMARK  218  A    between atoms: _540  and  _541
REMARK  219  A    between atoms: _543  and  _545
REMARK  220  A    between atoms: _545  and  _546
REMARK  221  A    between atoms: _545  and  _548
REMARK  222  A    between atoms: _548  and  _549
REMARK  223  A    between atoms: _549  and  _550
REMARK  224  A    between atoms: _550  and  _551
REMARK  225  A    between atoms: _560  and  _562
REMARK  226  A    between atoms: _562  and  _563
REMARK  227  A    between atoms: _562  and  _565
REMARK  228  A    between atoms: _565  and  _566
REMARK                            x       y       z     vdW  Elec       q    Type
REMARK                         _______ _______ _______ _____ _____    ______ ____
ROOT
ATOM      1  CA  LEU A   1       8.356  28.015  12.878  0.00  0.00    +0.133 C 
ENDROOT
BRANCH   1   2
ATOM      2  N   LEU A   1       8.492  28.164  11.432  0.00  0.00    -0.239 NA
ATOM      3  H   LEU A   1       9.340  27.756  10.989  0.00  0.00    +0.142 HD
ENDBRANCH   1   2
BRANCH   1   4
ATOM      4  C   LEU A   1       9.074  29.129  13.615  0.00  0.00    +0.224 C 
ATOM      5  O   LEU A   1      10.249  29.388  13.359  0.00  0.00    -0.287 OA
ENDBRANCH   1   4
BRANCH   1   6
ATOM      6  CB  LEU A   1       8.944  26.662  13.245  0.00  0.00    +0.025 C 
BRANCH   6   7
ATOM      7  CG  LEU A   1       8.904  26.138  14.660  0.00  0.00    +0.002 C 
ATOM      8  CD2 LEU A   1       7.492  25.892  15.123  0.00  0.00    +0.000 C 
ATOM      9  CD1 LEU A   1       9.658  24.816  14.753  0.00  0.00    +0.000 C 
ENDBRANCH   6   7
ENDBRANCH   1   6
TORSDOF 4
REMARK  Name = ../refined-set-2016/2aoe/2aoe_pocket.pdb
REMARK  228 active torsions:
REMARK  status: ('A' for Active; 'I' for Inactive)
REMARK    1  A    between atoms: _1  and  _3
REMARK    2  A    between atoms: _3  and  _4
REMARK    3  A    between atoms: _3  and  _6
REMARK    4  A    between atoms: _6  and  _7
REMARK    5  A    between atoms: _7  and  _8
REMARK    6  A    between atoms: _8  and  _9
REMARK    7  A    between atoms: _18  and  _20
REMARK    8  A    between atoms: _20  and  _21
REMARK    9  A    between atoms: _20  and  _23
REMARK   10  A    between atoms: _23  and  _24
REMARK   11  A    between atoms: _27  and  _29
REMARK   12  A    between atoms: _29  and  _30
REMARK   13  A    between atoms: _29  and  _32
REMARK   14  A    between atoms: _32  and  _33
REMARK   15  A    between atoms: _36  and  _38
REMARK   16  A    between atoms: _38  and  _39
REMARK   17  A    between atoms: _38  and  _41
REMARK   18  A    between atoms: _41  and  _42
REMARK   19  A    between atoms: _45  and  _47
REMARK   20  A    between atoms: _47  and  _48
REMARK   21  A    between atoms: _50  and  _52
REMARK   22  A    between atoms: _52  and  _53
REMARK   23  A    between atoms: _56  and  _58
REMARK   24  A    between atoms: _58  and  _59
REMARK   25  A    between atoms: _58  and  _61
REMARK   26  A    between atoms: _61  and  _62
REMARK   27  A    between atoms: _65  and  _67
REMARK   28  A    between atoms: _67  and  _68
REMARK   29  A    between atoms: _67  and  _70
REMARK   30  A    between atoms: _70  and  _71
REMARK   31  A    between atoms: _74  and  _76
REMARK   32  A    between atoms: _76  and  _77
REMARK   33  A    between atoms: _76  and  _79
REMARK   34  A    between atoms: _79  and  _80
REMARK   35  A    between atoms: _83  and  _85
REMARK   36  A    between atoms: _85  and  _86
REMARK   37  A    between atoms: _85  and  _88
REMARK   38  A    between atoms: _91  and  _93
REMARK   39  A    between atoms: _93  and  _94
REMARK   40  A    between atoms: _93  and  _96
REMARK   41  A    between atoms: _97  and  _98
REMARK   42  A    between atoms: _98  and  _99
REMARK   43  A    between atoms: _99  and  _100
REMARK   44  A    between atoms: _104  and  _106
REMARK   45  A    between atoms: _106  and  _107
REMARK   46  A    between atoms: _106  and  _109
REMARK   47  A    between atoms: _109  and  _110
REMARK   48  A    between atoms: _110  and  _111
REMARK   49  A    between atoms: _113  and  _115
REMARK   50  A    between atoms: _115  and  _116
REMARK   51  A    between atoms: _115  and  _118
REMARK   52  A    between atoms: _118  and  _119
REMARK   53  A    between atoms: _122  and  _124
REMARK   54  A    between atoms: _124  and  _125
REMARK   55  A    between atoms: _127  and  _129
REMARK   56  A    between atoms: _129  and  _130
REMARK   57  A    between atoms: _132  and  _134
REMARK   58  A    between atoms: _134  and  _135
REMARK   59  A    between atoms: _134  and  _137
REMARK   60  A    between atoms: _137  and  _138
REMARK   61  A    between atoms: _141  and  _143
REMARK   62  A    between atoms: _143  and  _144
REMARK   63  A    between atoms: _146  and  _148
REMARK   64  A    between atoms: _148  and  _149
REMARK   65  A    between atoms: _151  and  _153
REMARK   66  A    between atoms: _153  and  _154
REMARK   67  A    between atoms: _153  and  _156
REMARK   68  A    between atoms: _156  and  _157
REMARK   69  A    between atoms: _163  and  _165
REMARK   70  A    between atoms: _165  and  _166
REMARK   71  A    between atoms: _165  and  _168
REMARK   72  A    between atoms: _168  and  _169
REMARK   73  A    between atoms: _172  and  _174
REMARK   74  A    between atoms: _174  and  _175
REMARK   75  A    between atoms: _174  and  _177
REMARK   76  A    between atoms: _180  and  _182
REMARK   77  A    between atoms: _182  and  _183
REMARK   78  A    between atoms: _182  and  _185
REMARK   79  A    between atoms: _185  and  _186
REMARK   80  A    between atoms: _189  and  _191
REMARK   81  A    between atoms: _191  and  _192
REMARK   82  A    between atoms: _191  and  _194
REMARK   83  A    between atoms: _194  and  _195
REMARK   84  A    between atoms: _199  and  _200
REMARK   85  A    between atoms: _205  and  _207
REMARK   86  A    between atoms: _207  and  _208
REMARK   87  A    between atoms: _211  and  _213
REMARK   88  A    between atoms: _213  and  _214
REMARK   89  A    between atoms: _213  and  _216
REMARK   90  A    between atoms: _216  and  _217
REMARK   91  A    between atoms: _222  and  _224
REMARK   92  A    between atoms: _224  and  _225
REMARK   93  A    between atoms: _224  and  _227
REMARK   94  A    between atoms: _227  and  _228
REMARK   95  A    between atoms: _231  and  _233
REMARK   96  A    between atoms: _233  and  _234
REMARK   97  A    between atoms: _233  and  _236
REMARK   98  A    between atoms: _236  and  _237
REMARK   99  A    between atoms: _240  and  _242
REMARK  100  A    between atoms: _242  and  _243
REMARK  101  A    between atoms: _245  and  _247
REMARK  102  A    between atoms: _247  and  _248
REMARK  103  A    between atoms: _247  and  _250
REMARK  104  A    between atoms: _250  and  _251
REMARK  105  A    between atoms: _251  and  _252
REMARK  106  A    between atoms: _252  and  _253
REMARK  107  A    between atoms: _262  and  _264
REMARK  108  A    between atoms: _264  and  _265
REMARK  109  A    between atoms: _264  and  _267
REMARK  110  A    between atoms: _267  and  _268
REMARK  111  A    between atoms: _273  and  _275
REMARK  112  A    between atoms: _275  and  _276
REMARK  113  A    between atoms: _275  and  _278
REMARK  114  A    between atoms: _278  and  _279
REMARK  115  A    between atoms: _279  and  _280
REMARK  116  A    between atoms: _280  and  _281
REMARK  117  A    between atoms: _290  and  _292
REMARK  118  A    between atoms: _292  and  _293
REMARK  119  A    between atoms: _292  and  _295
REMARK  120  A    between atoms: _295  and  _296
REMARK  121  A    between atoms: _299  and  _301
REMARK  122  A    between atoms: _301  and  _302
REMARK  123  A    between atoms: _301  and  _304
REMARK  124  A    between atoms: _304  and  _305
REMARK  125  A    between atoms: _308  and  _310
REMARK  126  A    between atoms: _310  and  _311
REMARK  127  A    between atoms: _310  and  _313
REMARK  128  A    between atoms: _313  and  _314
REMARK  129  A    between atoms: _317  and  _319
REMARK  130  A    between atoms: _319  and  _320
REMARK  131  A    between atoms: _322  and  _324
REMARK  132  A    between atoms: _324  and  _325
REMARK  133  A    between atoms: _328  and  _330
REMARK  134  A    between atoms: _330  and  _331
REMARK  135  A    between atoms: _330  and  _333
REMARK  136  A    between atoms: _333  and  _334
REMARK  137  A    between atoms: _337  and  _339
REMARK  138  A    between atoms: _339  and  _340
REMARK  139  A    between atoms: _339  and  _342
REMARK  140  A    between atoms: _342  and  _343
REMARK  141  A    between atoms: _346  and  _348
REMARK  142  A    between atoms: _348  and  _349
REMARK  143  A    between atoms: _348  and  _351
REMARK  144  A    between atoms: _351  and  _352
REMARK  145  A    between atoms: _355  and  _357
REMARK  146  A    between atoms: _357  and  _358
REMARK  147  A    between atoms: _357  and  _360
REMARK  148  A    between atoms: _364  and  _365
REMARK  149  A    between atoms: _370  and  _372
REMARK  150  A    between atoms: _372  and  _373
REMARK  151  A    between atoms: _372  and  _375
REMARK  152  A    between atoms: _375  and  _376
REMARK  153  A    between atoms: _376  and  _377
REMARK  154  A    between atoms: _377  and  _378
REMARK  155  A    between atoms: _378  and  _379
REMARK  156  A    between atoms: _383  and  _385
REMARK  157  A    between atoms: _385  and  _386
REMARK  158  A    between atoms: _385  and  _388
REMARK  159  A    between atoms: _388  and  _389
REMARK  160  A    between atoms: _389  and  _390
REMARK  161  A    between atoms: _392  and  _394
REMARK  162  A    between atoms: _394  and  _395
REMARK  163  A    between atoms: _394  and  _397
REMARK  164  A    between atoms: _397  and  _398
REMARK  165  A    between atoms: _401  and  _403
REMARK  166  A    between atoms: _403  and  _404
REMARK  167  A    between atoms: _406  and  _408
REMARK  168  A    between atoms: _408  and  _409
REMARK  169  A    between atoms: _411  and  _413
REMARK  170  A    between atoms: _413  and  _414
REMARK  171  A    between atoms: _413  and  _416
REMARK  172  A    between atoms: _416  and  _417
REMARK  173  A    between atoms: _420  and  _422
REMARK  174  A    between atoms: _422  and  _423
REMARK  175  A    between atoms: _425  and  _427
REMARK  176  A    between atoms: _427  and  _428
REMARK  177  A    between atoms: _430  and  _432
REMARK  178  A    between atoms: _432  and  _433
REMARK  179  A    between atoms: _432  and  _435
REMARK  180  A    between atoms: _435  and  _436
REMARK  181  A    between atoms: _442  and  _444
REMARK  182  A    between atoms: _444  and  _445
REMARK  183  A    between atoms: _444  and  _447
REMARK  184  A    between atoms: _447  and  _448
REMARK  185  A    between atoms: _451  and  _453
REMARK  186  A    between atoms: _453  and  _454
REMARK  187  A    between atoms: _453  and  _456
REMARK  188  A    between atoms: _459  and  _461
REMARK  189  A    between atoms: _461  and  _462
REMARK  190  A    between atoms: _461  and  _464
REMARK  191  A    between atoms: _464  and  _465
REMARK  192  A    between atoms: _465  and  _466
REMARK  193  A    between atoms: _471  and  _473
REMARK  194  A    between atoms: _473  and  _474
REMARK  195  A    between atoms: _473  and  _476
REMARK  196  A    between atoms: _476  and  _477
REMARK  197  A    between atoms: _481  and  _482
REMARK  198  A    between atoms: _487  and  _489
REMARK  199  A    between atoms: _489  and  _490
REMARK  200  A    between atoms: _489  and  _492
REMARK  201  A    between atoms: _492  and  _493
REMARK  202  A    between atoms: _497  and  _498
REMARK  203  A    between atoms: _503  and  _505
REMARK  204  A    between atoms: _505  and  _506
REMARK  205  A    between atoms: _509  and  _511
REMARK  206  A    between atoms: _511  and  _512
REMARK  207  A    between atoms: _511  and  _514
REMARK  208  A    between atoms: _514  and  _515
REMARK  209  A    between atoms: _520  and  _522
REMARK  210  A    between atoms: _522  and  _523
REMARK  211  A    between atoms: _522  and  _525
REMARK  212  A    between atoms: _525  and  _526
REMARK  213  A    between atoms: _529  and  _531
REMARK  214  A    between atoms: _531  and  _532
REMARK  215  A    between atoms: _531  and  _534
REMARK  216  A    between atoms: _534  and  _535
REMARK  217  A    between atoms: _538  and  _540
REMARK  218  A    between atoms: _540  and  _541
REMARK  219  A    between atoms: _543  and  _545
REMARK  220  A    between atoms: _545  and  _546
REMARK  221  A    between atoms: _545  and  _548
REMARK  222  A    between atoms: _548  and  _549
REMARK  223  A    between atoms: _549  and  _550
REMARK  224  A    between atoms: _550  and  _551
REMARK  225  A    between atoms: _560  and  _562
REMARK  226  A    between atoms: _562  and  _563
REMARK  227  A    between atoms: _562  and  _565
REMARK  228  A    between atoms: _565  and  _566
REMARK                            x       y       z     vdW  Elec       q    Type
REMARK                         _______ _______ _______ _____ _____    ______ ____
ROOT
ATOM      1  CA  ASP A   5      20.072  31.644  17.477  0.00  0.00    +0.160 C 
ENDROOT
BRANCH   1   2
ATOM      2  C   ASP A   5      19.848  32.318  16.125  0.00  0.00    +0.241 C 
ATOM      3  O   ASP A   5      19.814  33.547  16.012  0.00  0.00    -0.273 OA
ATOM      4  N   ASP A   6      19.745  31.498  15.089  0.00  0.00    -0.297 N 
ATOM      5  H   ASP A   6      19.601  30.493  15.313  0.00  0.00    +0.150 HD
BRANCH   4   6
ATOM      6  CA  ASP A   6      19.809  31.833  13.696  0.00  0.00    +0.160 C 
BRANCH   6   7
ATOM      7  C   ASP A   6      18.530  31.448  12.975  0.00  0.00    +0.241 C 
ATOM      8  O   ASP A   6      17.814  30.571  13.464  0.00  0.00    -0.273 OA
ATOM      9  N   THR A   7      18.295  32.059  11.837  0.00  0.00    -0.295 N 
ATOM     10  H   THR A   7      18.945  32.815  11.543  0.00  0.00    +0.150 HD
BRANCH   9  11
ATOM     11  CA  THR A   7      17.162  31.734  10.952  0.00  0.00    +0.176 C 
BRANCH  11  12
ATOM     12  C   THR A   7      17.640  30.801   9.862  0.00  0.00    +0.243 C 
ATOM     13  N   VAL A   8      16.934  29.693   9.631  0.00  0.00    -0.298 N 
ATOM     14  H   VAL A   8      16.031  29.561  10.130  0.00  0.00    +0.150 HD
ATOM     15  O   THR A   7      18.684  31.117   9.258  0.00  0.00    -0.273 OA
BRANCH  13  16
ATOM     16  CA  VAL A   8      17.382  28.662   8.706  0.00  0.00    +0.137 C 
BRANCH  16  17
ATOM     17  CB  VAL A   8      17.955  27.426   9.412  0.00  0.00    +0.026 C 
ATOM     18  CG2 VAL A   8      18.818  27.821  10.598  0.00  0.00    +0.002 C 
ATOM     19  CG1 VAL A   8      18.712  26.649   8.329  0.00  0.00    +0.002 C 
ENDBRANCH  16  17
BRANCH  16  20
ATOM     20  C   VAL A   8      16.201  28.276   7.819  0.00  0.00    +0.227 C 
ATOM     21  O   VAL A   8      15.135  27.914   8.330  0.00  0.00    -0.286 OA
ENDBRANCH  16  20
ENDBRANCH  13  16
ENDBRANCH  11  12
BRANCH  11  22
ATOM     22  CB  THR A   7      16.600  33.073  10.420  0.00  0.00    +0.137 C 
ATOM     23  CG2 THR A   7      15.592  32.860   9.303  0.00  0.00    +0.034 C 
BRANCH  22  24
ATOM     24  OG1 THR A   7      15.967  33.773  11.506  0.00  0.00    -0.382 OA
ATOM     25  HG1 THR A   7      16.633  33.947  12.218  0.00  0.00    +0.210 HD
ENDBRANCH  22  24
ENDBRANCH  11  22
ENDBRANCH   9  11
ENDBRANCH   6   7
BRANCH   6  26
ATOM     26  CB  ASP A   6      20.968  31.048  13.016  0.00  0.00    +0.143 C 
BRANCH  26  27
ATOM     27  CG  ASP A   6      22.274  31.270  13.777  0.00  0.00    +0.367 C 
ATOM     28  OD2 ASP A   6      22.929  30.261  14.102  0.00  0.00    -0.246 OA
ATOM     29  OD1 ASP A   6      22.596  32.456  14.040  0.00  0.00    -0.246 OA
ENDBRANCH  26  27
ENDBRANCH   6  26
ENDBRANCH   4   6
ENDBRANCH   1   2
BRANCH   1  32
ATOM     30  C   ALA A   4      18.026  30.374  17.595  0.00  0.00    +0.241 C 
ATOM     31  O   ALA A   4      17.385  31.416  17.613  0.00  0.00    -0.273 OA
ATOM     32  N   ASP A   5      19.359  30.368  17.598  0.00  0.00    -0.297 N 
ATOM     33  H   ASP A   5      19.884  29.474  17.685  0.00  0.00    +0.150 HD
BRANCH  30  34
ATOM     34  CA  ALA A   4      17.366  29.017  17.584  0.00  0.00    +0.149 C 
ATOM     35  CB  ALA A   4      16.640  28.831  16.276  0.00  0.00    +0.031 C 
BRANCH  34  38
ATOM     36  C   GLY A   3      16.668  28.132  19.750  0.00  0.00    +0.243 C 
ATOM     37  O   GLY A   3      17.675  27.435  19.829  0.00  0.00    -0.273 OA
ATOM     38  N   ALA A   4      16.438  28.909  18.704  0.00  0.00    -0.297 N 
ATOM     39  H   ALA A   4      15.560  29.465  18.679  0.00  0.00    +0.150 HD
BRANCH  36  40
ATOM     40  CA  GLY A   3      15.647  28.147  20.864  0.00  0.00    +0.176 C 
BRANCH  40  43
ATOM     41  C   THR A   2      14.371  30.209  20.891  0.00  0.00    +0.243 C 
ATOM     42  O   THR A   2      15.289  30.756  21.461  0.00  0.00    -0.273 OA
ATOM     43  N   GLY A   3      14.492  28.942  20.628  0.00  0.00    -0.295 N 
ATOM     44  H   GLY A   3      13.669  28.466  20.206  0.00  0.00    +0.150 HD
BRANCH  41  45
ATOM     45  CA  THR A   2      13.116  30.976  20.501  0.00  0.00    +0.176 C 
BRANCH  45  47
ATOM     46  C   ASP A   1      12.740  30.033  18.313  0.00  0.00    +0.239 C 
ATOM     47  N   THR A   2      12.319  30.218  19.560  0.00  0.00    -0.295 N 
ATOM     48  H   THR A   2      11.409  29.815  19.862  0.00  0.00    +0.150 HD
ATOM     49  O   ASP A   1      13.823  30.460  17.935  0.00  0.00    -0.274 OA
BRANCH  46  50
ATOM     50  CA  ASP A   1      11.816  29.247  17.401  0.00  0.00    +0.156 C 
BRANCH  50  51
ATOM     51  N   ASP A   1      11.027  30.128  16.539  0.00  0.00    -0.238 NA
ATOM     52  H   ASP A   1      11.509  30.825  15.935  0.00  0.00    +0.142 HD
ENDBRANCH  50  51
BRANCH  50  53
ATOM     53  CB  ASP A   1      12.639  28.311  16.519  0.00  0.00    +0.140 C 
BRANCH  53  54
ATOM     54  CG  ASP A   1      13.395  27.221  17.247  0.00  0.00    +0.367 C 
ATOM     55  OD2 ASP A   1      13.387  27.262  18.516  0.00  0.00    -0.246 OA
ATOM     56  OD1 ASP A   1      13.958  26.334  16.544  0.00  0.00    -0.246 OA
ENDBRANCH  53  54
ENDBRANCH  50  53
ENDBRANCH  46  50
ENDBRANCH  45  47
BRANCH  45  57
ATOM     57  CB  THR A   2      12.333  31.306  21.770  0.00  0.00    +0.137 C 
ATOM     58  CG2 THR A   2      11.143  32.224  21.447  0.00  0.00    +0.034 C 
BRANCH  57  59
ATOM     59  OG1 THR A   2      11.850  30.090  22.349  0.00  0.00    -0.382 OA
ATOM     60  HG1 THR A   2      12.617  29.505  22.572  0.00  0.00    +0.210 HD
ENDBRANCH  57  59
ENDBRANCH  45  57
ENDBRANCH  41  45
ENDBRANCH  40  43
ENDBRANCH  36  40
ENDBRANCH  34  38
ENDBRANCH  30  34
ENDBRANCH   1  32
BRANCH   1  61
ATOM     61  CB  ASP A   5      21.563  31.351  17.662  0.00  0.00    +0.143 C 
BRANCH  61  62
ATOM     62  CG  ASP A   5      22.043  30.787  18.980  0.00  0.00    +0.367 C 
ATOM     63  OD2 ASP A   5      21.395  30.993  20.025  0.00  0.00    -0.246 OA
ATOM     64  OD1 ASP A   5      23.128  30.123  18.966  0.00  0.00    -0.246 OA
ENDBRANCH  61  62
ENDBRANCH   1  61
TORSDOF 27
REMARK  Name = ../refined-set-2016/2aoe/2aoe_pocket.pdb
REMARK  228 active torsions:
REMARK  status: ('A' for Active; 'I' for Inactive)
REMARK    1  A    between atoms: _1  and  _3
REMARK    2  A    between atoms: _3  and  _4
REMARK    3  A    between atoms: _3  and  _6
REMARK    4  A    between atoms: _6  and  _7
REMARK    5  A    between atoms: _7  and  _8
REMARK    6  A    between atoms: _8  and  _9
REMARK    7  A    between atoms: _18  and  _20
REMARK    8  A    between atoms: _20  and  _21
REMARK    9  A    between atoms: _20  and  _23
REMARK   10  A    between atoms: _23  and  _24
REMARK   11  A    between atoms: _27  and  _29
REMARK   12  A    between atoms: _29  and  _30
REMARK   13  A    between atoms: _29  and  _32
REMARK   14  A    between atoms: _32  and  _33
REMARK   15  A    between atoms: _36  and  _38
REMARK   16  A    between atoms: _38  and  _39
REMARK   17  A    between atoms: _38  and  _41
REMARK   18  A    between atoms: _41  and  _42
REMARK   19  A    between atoms: _45  and  _47
REMARK   20  A    between atoms: _47  and  _48
REMARK   21  A    between atoms: _50  and  _52
REMARK   22  A    between atoms: _52  and  _53
REMARK   23  A    between atoms: _56  and  _58
REMARK   24  A    between atoms: _58  and  _59
REMARK   25  A    between atoms: _58  and  _61
REMARK   26  A    between atoms: _61  and  _62
REMARK   27  A    between atoms: _65  and  _67
REMARK   28  A    between atoms: _67  and  _68
REMARK   29  A    between atoms: _67  and  _70
REMARK   30  A    between atoms: _70  and  _71
REMARK   31  A    between atoms: _74  and  _76
REMARK   32  A    between atoms: _76  and  _77
REMARK   33  A    between atoms: _76  and  _79
REMARK   34  A    between atoms: _79  and  _80
REMARK   35  A    between atoms: _83  and  _85
REMARK   36  A    between atoms: _85  and  _86
REMARK   37  A    between atoms: _85  and  _88
REMARK   38  A    between atoms: _91  and  _93
REMARK   39  A    between atoms: _93  and  _94
REMARK   40  A    between atoms: _93  and  _96
REMARK   41  A    between atoms: _97  and  _98
REMARK   42  A    between atoms: _98  and  _99
REMARK   43  A    between atoms: _99  and  _100
REMARK   44  A    between atoms: _104  and  _106
REMARK   45  A    between atoms: _106  and  _107
REMARK   46  A    between atoms: _106  and  _109
REMARK   47  A    between atoms: _109  and  _110
REMARK   48  A    between atoms: _110  and  _111
REMARK   49  A    between atoms: _113  and  _115
REMARK   50  A    between atoms: _115  and  _116
REMARK   51  A    between atoms: _115  and  _118
REMARK   52  A    between atoms: _118  and  _119
REMARK   53  A    between atoms: _122  and  _124
REMARK   54  A    between atoms: _124  and  _125
REMARK   55  A    between atoms: _127  and  _129
REMARK   56  A    between atoms: _129  and  _130
REMARK   57  A    between atoms: _132  and  _134
REMARK   58  A    between atoms: _134  and  _135
REMARK   59  A    between atoms: _134  and  _137
REMARK   60  A    between atoms: _137  and  _138
REMARK   61  A    between atoms: _141  and  _143
REMARK   62  A    between atoms: _143  and  _144
REMARK   63  A    between atoms: _146  and  _148
REMARK   64  A    between atoms: _148  and  _149
REMARK   65  A    between atoms: _151  and  _153
REMARK   66  A    between atoms: _153  and  _154
REMARK   67  A    between atoms: _153  and  _156
REMARK   68  A    between atoms: _156  and  _157
REMARK   69  A    between atoms: _163  and  _165
REMARK   70  A    between atoms: _165  and  _166
REMARK   71  A    between atoms: _165  and  _168
REMARK   72  A    between atoms: _168  and  _169
REMARK   73  A    between atoms: _172  and  _174
REMARK   74  A    between atoms: _174  and  _175
REMARK   75  A    between atoms: _174  and  _177
REMARK   76  A    between atoms: _180  and  _182
REMARK   77  A    between atoms: _182  and  _183
REMARK   78  A    between atoms: _182  and  _185
REMARK   79  A    between atoms: _185  and  _186
REMARK   80  A    between atoms: _189  and  _191
REMARK   81  A    between atoms: _191  and  _192
REMARK   82  A    between atoms: _191  and  _194
REMARK   83  A    between atoms: _194  and  _195
REMARK   84  A    between atoms: _199  and  _200
REMARK   85  A    between atoms: _205  and  _207
REMARK   86  A    between atoms: _207  and  _208
REMARK   87  A    between atoms: _211  and  _213
REMARK   88  A    between atoms: _213  and  _214
REMARK   89  A    between atoms: _213  and  _216
REMARK   90  A    between atoms: _216  and  _217
REMARK   91  A    between atoms: _222  and  _224
REMARK   92  A    between atoms: _224  and  _225
REMARK   93  A    between atoms: _224  and  _227
REMARK   94  A    between atoms: _227  and  _228
REMARK   95  A    between atoms: _231  and  _233
REMARK   96  A    between atoms: _233  and  _234
REMARK   97  A    between atoms: _233  and  _236
REMARK   98  A    between atoms: _236  and  _237
REMARK   99  A    between atoms: _240  and  _242
REMARK  100  A    between atoms: _242  and  _243
REMARK  101  A    between atoms: _245  and  _247
REMARK  102  A    between atoms: _247  and  _248
REMARK  103  A    between atoms: _247  and  _250
REMARK  104  A    between atoms: _250  and  _251
REMARK  105  A    between atoms: _251  and  _252
REMARK  106  A    between atoms: _252  and  _253
REMARK  107  A    between atoms: _262  and  _264
REMARK  108  A    between atoms: _264  and  _265
REMARK  109  A    between atoms: _264  and  _267
REMARK  110  A    between atoms: _267  and  _268
REMARK  111  A    between atoms: _273  and  _275
REMARK  112  A    between atoms: _275  and  _276
REMARK  113  A    between atoms: _275  and  _278
REMARK  114  A    between atoms: _278  and  _279
REMARK  115  A    between atoms: _279  and  _280
REMARK  116  A    between atoms: _280  and  _281
REMARK  117  A    between atoms: _290  and  _292
REMARK  118  A    between atoms: _292  and  _293
REMARK  119  A    between atoms: _292  and  _295
REMARK  120  A    between atoms: _295  and  _296
REMARK  121  A    between atoms: _299  and  _301
REMARK  122  A    between atoms: _301  and  _302
REMARK  123  A    between atoms: _301  and  _304
REMARK  124  A    between atoms: _304  and  _305
REMARK  125  A    between atoms: _308  and  _310
REMARK  126  A    between atoms: _310  and  _311
REMARK  127  A    between atoms: _310  and  _313
REMARK  128  A    between atoms: _313  and  _314
REMARK  129  A    between atoms: _317  and  _319
REMARK  130  A    between atoms: _319  and  _320
REMARK  131  A    between atoms: _322  and  _324
REMARK  132  A    between atoms: _324  and  _325
REMARK  133  A    between atoms: _328  and  _330
REMARK  134  A    between atoms: _330  and  _331
REMARK  135  A    between atoms: _330  and  _333
REMARK  136  A    between atoms: _333  and  _334
REMARK  137  A    between atoms: _337  and  _339
REMARK  138  A    between atoms: _339  and  _340
REMARK  139  A    between atoms: _339  and  _342
REMARK  140  A    between atoms: _342  and  _343
REMARK  141  A    between atoms: _346  and  _348
REMARK  142  A    between atoms: _348  and  _349
REMARK  143  A    between atoms: _348  and  _351
REMARK  144  A    between atoms: _351  and  _352
REMARK  145  A    between atoms: _355  and  _357
REMARK  146  A    between atoms: _357  and  _358
REMARK  147  A    between atoms: _357  and  _360
REMARK  148  A    between atoms: _364  and  _365
REMARK  149  A    between atoms: _370  and  _372
REMARK  150  A    between atoms: _372  and  _373
REMARK  151  A    between atoms: _372  and  _375
REMARK  152  A    between atoms: _375  and  _376
REMARK  153  A    between atoms: _376  and  _377
REMARK  154  A    between atoms: _377  and  _378
REMARK  155  A    between atoms: _378  and  _379
REMARK  156  A    between atoms: _383  and  _385
REMARK  157  A    between atoms: _385  and  _386
REMARK  158  A    between atoms: _385  and  _388
REMARK  159  A    between atoms: _388  and  _389
REMARK  160  A    between atoms: _389  and  _390
REMARK  161  A    between atoms: _392  and  _394
REMARK  162  A    between atoms: _394  and  _395
REMARK  163  A    between atoms: _394  and  _397
REMARK  164  A    between atoms: _397  and  _398
REMARK  165  A    between atoms: _401  and  _403
REMARK  166  A    between atoms: _403  and  _404
REMARK  167  A    between atoms: _406  and  _408
REMARK  168  A    between atoms: _408  and  _409
REMARK  169  A    between atoms: _411  and  _413
REMARK  170  A    between atoms: _413  and  _414
REMARK  171  A    between atoms: _413  and  _416
REMARK  172  A    between atoms: _416  and  _417
REMARK  173  A    between atoms: _420  and  _422
REMARK  174  A    between atoms: _422  and  _423
REMARK  175  A    between atoms: _425  and  _427
REMARK  176  A    between atoms: _427  and  _428
REMARK  177  A    between atoms: _430  and  _432
REMARK  178  A    between atoms: _432  and  _433
REMARK  179  A    between atoms: _432  and  _435
REMARK  180  A    between atoms: _435  and  _436
REMARK  181  A    between atoms: _442  and  _444
REMARK  182  A    between atoms: _444  and  _445
REMARK  183  A    between atoms: _444  and  _447
REMARK  184  A    between atoms: _447  and  _448
REMARK  185  A    between atoms: _451  and  _453
REMARK  186  A    between atoms: _453  and  _454
REMARK  187  A    between atoms: _453  and  _456
REMARK  188  A    between atoms: _459  and  _461
REMARK  189  A    between atoms: _461  and  _462
REMARK  190  A    between atoms: _461  and  _464
REMARK  191  A    between atoms: _464  and  _465
REMARK  192  A    between atoms: _465  and  _466
REMARK  193  A    between atoms: _471  and  _473
REMARK  194  A    between atoms: _473  and  _474
REMARK  195  A    between atoms: _473  and  _476
REMARK  196  A    between atoms: _476  and  _477
REMARK  197  A    between atoms: _481  and  _482
REMARK  198  A    between atoms: _487  and  _489
REMARK  199  A    between atoms: _489  and  _490
REMARK  200  A    between atoms: _489  and  _492
REMARK  201  A    between atoms: _492  and  _493
REMARK  202  A    between atoms: _497  and  _498
REMARK  203  A    between atoms: _503  and  _505
REMARK  204  A    between atoms: _505  and  _506
REMARK  205  A    between atoms: _509  and  _511
REMARK  206  A    between atoms: _511  and  _512
REMARK  207  A    between atoms: _511  and  _514
REMARK  208  A    between atoms: _514  and  _515
REMARK  209  A    between atoms: _520  and  _522
REMARK  210  A    between atoms: _522  and  _523
REMARK  211  A    between atoms: _522  and  _525
REMARK  212  A    between atoms: _525  and  _526
REMARK  213  A    between atoms: _529  and  _531
REMARK  214  A    between atoms: _531  and  _532
REMARK  215  A    between atoms: _531  and  _534
REMARK  216  A    between atoms: _534  and  _535
REMARK  217  A    between atoms: _538  and  _540
REMARK  218  A    between atoms: _540  and  _541
REMARK  219  A    between atoms: _543  and  _545
REMARK  220  A    between atoms: _545  and  _546
REMARK  221  A    between atoms: _545  and  _548
REMARK  222  A    between atoms: _548  and  _549
REMARK  223  A    between atoms: _549  and  _550
REMARK  224  A    between atoms: _550  and  _551
REMARK  225  A    between atoms: _560  and  _562
REMARK  226  A    between atoms: _562  and  _563
REMARK  227  A    between atoms: _562  and  _565
REMARK  228  A    between atoms: _565  and  _566
REMARK                            x       y       z     vdW  Elec       q    Type
REMARK                         _______ _______ _______ _____ _____    ______ ____
ROOT
ATOM      1  C   GLY A   5      21.020  19.636  17.475  0.00  0.00    +0.243 C 
ATOM      2  N   ILE A   6      19.805  19.262  17.813  0.00  0.00    -0.297 N 
ATOM      3  H   ILE A   6      19.015  19.937  17.850  0.00  0.00    +0.150 HD
ATOM      4  O   GLY A   5      22.002  18.902  17.451  0.00  0.00    -0.273 OA
ENDROOT
BRANCH   1   5
ATOM      5  CA  GLY A   5      21.216  21.087  17.131  0.00  0.00    +0.176 C 
BRANCH   5   7
ATOM      6  C   GLY A   4      22.886  22.407  15.932  0.00  0.00    +0.243 C 
ATOM      7  N   GLY A   5      22.390  21.240  16.300  0.00  0.00    -0.295 N 
ATOM      8  H   GLY A   5      22.873  20.379  15.973  0.00  0.00    +0.150 HD
ATOM      9  O   GLY A   4      22.372  23.477  16.230  0.00  0.00    -0.273 OA
BRANCH   6  10
ATOM     10  CA  GLY A   4      24.116  22.296  15.075  0.00  0.00    +0.176 C 
BRANCH  10  12
ATOM     11  C   ILE A   3      24.581  23.486  13.052  0.00  0.00    +0.241 C 
ATOM     12  N   GLY A   4      24.415  23.509  14.373  0.00  0.00    -0.295 N 
ATOM     13  H   GLY A   4      24.502  24.405  14.894  0.00  0.00    +0.150 HD
ATOM     14  O   ILE A   3      24.392  22.470  12.383  0.00  0.00    -0.273 OA
BRANCH  11  15
ATOM     15  CA  ILE A   3      25.038  24.795  12.462  0.00  0.00    +0.149 C 
BRANCH  15  18
ATOM     16  C   MET A   2      27.118  25.092  11.239  0.00  0.00    +0.241 C 
ATOM     17  O   MET A   2      27.540  25.901  12.070  0.00  0.00    -0.273 OA
ATOM     18  N   ILE A   3      25.910  24.527  11.318  0.00  0.00    -0.297 N 
ATOM     19  H   ILE A   3      25.587  23.892  10.561  0.00  0.00    +0.150 HD
BRANCH  16  20
ATOM     20  CA  MET A   2      27.984  24.671  10.064  0.00  0.00    +0.149 C 
BRANCH  20  22
ATOM     21  C   LYS A   1      28.177  26.272   8.235  0.00  0.00    +0.243 C 
ATOM     22  N   MET A   2      28.547  25.853   9.440  0.00  0.00    -0.297 N 
ATOM     23  H   MET A   2      29.269  26.394   9.957  0.00  0.00    +0.150 HD
ATOM     24  O   LYS A   1      27.464  25.626   7.465  0.00  0.00    -0.273 OA
BRANCH  21  25
ATOM     25  CA  LYS A   1      28.674  27.662   7.832  0.00  0.00    +0.167 C 
BRANCH  25  26
ATOM     26  N   LYS A   1      28.794  27.690   6.398  0.00  0.00    -0.234 NA
ATOM     27  H   LYS A   1      28.135  27.111   5.838  0.00  0.00    +0.142 HD
ENDBRANCH  25  26
BRANCH  25  28
ATOM     28  CB  LYS A   1      27.705  28.763   8.271  0.00  0.00    -0.005 C 
ATOM     29  CG  LYS A   1      27.498  29.000   9.747  0.00  0.00    -0.031 C 
BRANCH  29  30
ATOM     30  CD  LYS A   1      26.575  30.141  10.089  0.00  0.00    +0.002 C 
BRANCH  30  31
ATOM     31  CE  LYS A   1      26.448  30.374  11.586  0.00  0.00    -0.081 C 
BRANCH  31  32
ATOM     32  NZ  LYS A   1      27.644  31.101  12.107  0.00  0.00    +0.381 N 
ATOM     33  HZ1 LYS A   1      27.538  31.251  13.131  0.00  0.00    -0.089 HD
ATOM     34  HZ2 LYS A   1      28.498  30.537  11.924  0.00  0.00    -0.089 HD
ATOM     35  HZ3 LYS A   1      27.725  32.020  11.628  0.00  0.00    -0.089 HD
ENDBRANCH  31  32
ENDBRANCH  30  31
ENDBRANCH  29  30
ENDBRANCH  25  28
ENDBRANCH  21  25
ENDBRANCH  20  22
BRANCH  20  36
ATOM     36  CB  MET A   2      29.088  23.726  10.544  0.00  0.00    +0.041 C 
BRANCH  36  37
ATOM     37  CG  MET A   2      28.745  22.284  10.192  0.00  0.00    +0.060 C 
BRANCH  37  38
ATOM     38  SD  MET A   2      28.898  22.024   8.407  0.00  0.00    -0.139 S 
ATOM     39  CE  MET A   2      30.580  21.432   8.310  0.00  0.00    +0.069 C 
ENDBRANCH  37  38
ENDBRANCH  36  37
ENDBRANCH  20  36
ENDBRANCH  16  20
ENDBRANCH  15  18
BRANCH  15  40
ATOM     40  CB  ILE A   3      23.833  25.676  12.088  0.00  0.00    +0.027 C 
ATOM     41  CG2 ILE A   3      24.240  27.059  11.654  0.00  0.00    +0.002 C 
BRANCH  40  42
ATOM     42  CG1 ILE A   3      22.943  24.999  11.036  0.00  0.00    +0.002 C 
ATOM     43  CD1 ILE A   3      21.733  25.815  10.685  0.00  0.00    +0.000 C 
ENDBRANCH  40  42
ENDBRANCH  15  40
ENDBRANCH  11  15
ENDBRANCH  10  12
ENDBRANCH   6  10
ENDBRANCH   5   7
ENDBRANCH   1   5
BRANCH   2  44
ATOM     44  CA  ILE A   6      19.624  17.849  18.134  0.00  0.00    +0.149 C 
BRANCH  44  45
ATOM     45  C   ILE A   6      19.959  17.042  16.908  0.00  0.00    +0.241 C 
ATOM     46  N   GLY A   7      20.713  15.973  17.067  0.00  0.00    -0.295 N 
ATOM     47  H   GLY A   7      21.049  15.704  18.014  0.00  0.00    +0.150 HD
ATOM     48  O   ILE A   6      19.580  17.373  15.775  0.00  0.00    -0.273 OA
BRANCH  46  49
ATOM     49  CA  GLY A   7      21.065  15.186  15.924  0.00  0.00    +0.176 C 
BRANCH  49  50
ATOM     50  C   GLY A   7      22.387  15.540  15.287  0.00  0.00    +0.243 C 
ATOM     51  N   GLY A   8      23.010  16.659  15.620  0.00  0.00    -0.295 N 
ATOM     52  H   GLY A   8      22.571  17.287  16.323  0.00  0.00    +0.150 HD
ATOM     53  O   GLY A   7      22.866  14.786  14.452  0.00  0.00    -0.273 OA
BRANCH  51  54
ATOM     54  CA  GLY A   8      24.269  17.036  15.045  0.00  0.00    +0.176 C 
BRANCH  54  55
ATOM     55  C   GLY A   8      24.200  18.300  14.208  0.00  0.00    +0.243 C 
ATOM     56  O   GLY A   8      23.373  19.187  14.401  0.00  0.00    -0.273 OA
ATOM     57  N   PHE A   9      25.119  18.362  13.260  0.00  0.00    -0.297 N 
ATOM     58  H   PHE A   9      25.731  17.534  13.114  0.00  0.00    +0.150 HD
BRANCH  57  59
ATOM     59  CA  PHE A   9      25.317  19.510  12.422  0.00  0.00    +0.153 C 
BRANCH  59  60
ATOM     60  C   PHE A   9      24.920  19.303  10.958  0.00  0.00    +0.241 C 
ATOM     61  O   PHE A   9      24.996  18.178  10.458  0.00  0.00    -0.273 OA
ATOM     62  N   ILE A  10      24.537  20.428  10.356  0.00  0.00    -0.298 N 
ATOM     63  H   ILE A  10      24.341  21.274  10.928  0.00  0.00    +0.150 HD
BRANCH  62  64
ATOM     64  CA  ILE A  10      24.388  20.490   8.896  0.00  0.00    +0.137 C 
BRANCH  64  65
ATOM     65  CB  ILE A  10      22.921  20.612   8.443  0.00  0.00    +0.026 C 
ATOM     66  CG2 ILE A  10      22.162  19.359   8.811  0.00  0.00    +0.002 C 
BRANCH  65  67
ATOM     67  CG1 ILE A  10      22.212  21.857   8.983  0.00  0.00    +0.002 C 
ATOM     68  CD1 ILE A  10      20.833  22.044   8.381  0.00  0.00    +0.000 C 
ENDBRANCH  65  67
ENDBRANCH  64  65
BRANCH  64  69
ATOM     69  C   ILE A  10      25.166  21.678   8.353  0.00  0.00    +0.227 C 
ATOM     70  O   ILE A  10      25.429  22.668   9.035  0.00  0.00    -0.286 OA
ENDBRANCH  64  69
ENDBRANCH  62  64
ENDBRANCH  59  60
BRANCH  59  71
ATOM     71  CB  PHE A   9      26.803  19.907  12.456  0.00  0.00    +0.055 C 
BRANCH  71  72
ATOM     72  CG  PHE A   9      27.226  20.533  13.767  0.00  0.00    -0.020 A 
ATOM     73  CD2 PHE A   9      27.464  19.738  14.881  0.00  0.00    -0.004 A 
ATOM     74  CE2 PHE A   9      27.840  20.367  16.074  0.00  0.00    -0.000 A 
ATOM     75  CZ  PHE A   9      27.984  21.739  16.164  0.00  0.00    -0.000 A 
ATOM     76  CE1 PHE A   9      27.733  22.520  15.047  0.00  0.00    -0.000 A 
ATOM     77  CD1 PHE A   9      27.371  21.922  13.853  0.00  0.00    -0.004 A 
ENDBRANCH  71  72
ENDBRANCH  59  71
ENDBRANCH  57  59
ENDBRANCH  54  55
ENDBRANCH  51  54
ENDBRANCH  49  50
ENDBRANCH  46  49
ENDBRANCH  44  45
BRANCH  44  78
ATOM     78  CB  ILE A   6      18.189  17.638  18.657  0.00  0.00    +0.027 C 
ATOM     79  CG2 ILE A   6      17.727  16.204  18.512  0.00  0.00    +0.002 C 
BRANCH  78  80
ATOM     80  CG1 ILE A   6      18.065  18.119  20.135  0.00  0.00    +0.002 C 
ATOM     81  CD1 ILE A   6      16.934  17.496  20.880  0.00  0.00    +0.000 C 
ENDBRANCH  78  80
ENDBRANCH  44  78
ENDBRANCH   2  44
TORSDOF 35
REMARK  Name = ../refined-set-2016/2aoe/2aoe_pocket.pdb
REMARK  228 active torsions:
REMARK  status: ('A' for Active; 'I' for Inactive)
REMARK    1  A    between atoms: _1  and  _3
REMARK    2  A    between atoms: _3  and  _4
REMARK    3  A    between atoms: _3  and  _6
REMARK    4  A    between atoms: _6  and  _7
REMARK    5  A    between atoms: _7  and  _8
REMARK    6  A    between atoms: _8  and  _9
REMARK    7  A    between atoms: _18  and  _20
REMARK    8  A    between atoms: _20  and  _21
REMARK    9  A    between atoms: _20  and  _23
REMARK   10  A    between atoms: _23  and  _24
REMARK   11  A    between atoms: _27  and  _29
REMARK   12  A    between atoms: _29  and  _30
REMARK   13  A    between atoms: _29  and  _32
REMARK   14  A    between atoms: _32  and  _33
REMARK   15  A    between atoms: _36  and  _38
REMARK   16  A    between atoms: _38  and  _39
REMARK   17  A    between atoms: _38  and  _41
REMARK   18  A    between atoms: _41  and  _42
REMARK   19  A    between atoms: _45  and  _47
REMARK   20  A    between atoms: _47  and  _48
REMARK   21  A    between atoms: _50  and  _52
REMARK   22  A    between atoms: _52  and  _53
REMARK   23  A    between atoms: _56  and  _58
REMARK   24  A    between atoms: _58  and  _59
REMARK   25  A    between atoms: _58  and  _61
REMARK   26  A    between atoms: _61  and  _62
REMARK   27  A    between atoms: _65  and  _67
REMARK   28  A    between atoms: _67  and  _68
REMARK   29  A    between atoms: _67  and  _70
REMARK   30  A    between atoms: _70  and  _71
REMARK   31  A    between atoms: _74  and  _76
REMARK   32  A    between atoms: _76  and  _77
REMARK   33  A    between atoms: _76  and  _79
REMARK   34  A    between atoms: _79  and  _80
REMARK   35  A    between atoms: _83  and  _85
REMARK   36  A    between atoms: _85  and  _86
REMARK   37  A    between atoms: _85  and  _88
REMARK   38  A    between atoms: _91  and  _93
REMARK   39  A    between atoms: _93  and  _94
REMARK   40  A    between atoms: _93  and  _96
REMARK   41  A    between atoms: _97  and  _98
REMARK   42  A    between atoms: _98  and  _99
REMARK   43  A    between atoms: _99  and  _100
REMARK   44  A    between atoms: _104  and  _106
REMARK   45  A    between atoms: _106  and  _107
REMARK   46  A    between atoms: _106  and  _109
REMARK   47  A    between atoms: _109  and  _110
REMARK   48  A    between atoms: _110  and  _111
REMARK   49  A    between atoms: _113  and  _115
REMARK   50  A    between atoms: _115  and  _116
REMARK   51  A    between atoms: _115  and  _118
REMARK   52  A    between atoms: _118  and  _119
REMARK   53  A    between atoms: _122  and  _124
REMARK   54  A    between atoms: _124  and  _125
REMARK   55  A    between atoms: _127  and  _129
REMARK   56  A    between atoms: _129  and  _130
REMARK   57  A    between atoms: _132  and  _134
REMARK   58  A    between atoms: _134  and  _135
REMARK   59  A    between atoms: _134  and  _137
REMARK   60  A    between atoms: _137  and  _138
REMARK   61  A    between atoms: _141  and  _143
REMARK   62  A    between atoms: _143  and  _144
REMARK   63  A    between atoms: _146  and  _148
REMARK   64  A    between atoms: _148  and  _149
REMARK   65  A    between atoms: _151  and  _153
REMARK   66  A    between atoms: _153  and  _154
REMARK   67  A    between atoms: _153  and  _156
REMARK   68  A    between atoms: _156  and  _157
REMARK   69  A    between atoms: _163  and  _165
REMARK   70  A    between atoms: _165  and  _166
REMARK   71  A    between atoms: _165  and  _168
REMARK   72  A    between atoms: _168  and  _169
REMARK   73  A    between atoms: _172  and  _174
REMARK   74  A    between atoms: _174  and  _175
REMARK   75  A    between atoms: _174  and  _177
REMARK   76  A    between atoms: _180  and  _182
REMARK   77  A    between atoms: _182  and  _183
REMARK   78  A    between atoms: _182  and  _185
REMARK   79  A    between atoms: _185  and  _186
REMARK   80  A    between atoms: _189  and  _191
REMARK   81  A    between atoms: _191  and  _192
REMARK   82  A    between atoms: _191  and  _194
REMARK   83  A    between atoms: _194  and  _195
REMARK   84  A    between atoms: _199  and  _200
REMARK   85  A    between atoms: _205  and  _207
REMARK   86  A    between atoms: _207  and  _208
REMARK   87  A    between atoms: _211  and  _213
REMARK   88  A    between atoms: _213  and  _214
REMARK   89  A    between atoms: _213  and  _216
REMARK   90  A    between atoms: _216  and  _217
REMARK   91  A    between atoms: _222  and  _224
REMARK   92  A    between atoms: _224  and  _225
REMARK   93  A    between atoms: _224  and  _227
REMARK   94  A    between atoms: _227  and  _228
REMARK   95  A    between atoms: _231  and  _233
REMARK   96  A    between atoms: _233  and  _234
REMARK   97  A    between atoms: _233  and  _236
REMARK   98  A    between atoms: _236  and  _237
REMARK   99  A    between atoms: _240  and  _242
REMARK  100  A    between atoms: _242  and  _243
REMARK  101  A    between atoms: _245  and  _247
REMARK  102  A    between atoms: _247  and  _248
REMARK  103  A    between atoms: _247  and  _250
REMARK  104  A    between atoms: _250  and  _251
REMARK  105  A    between atoms: _251  and  _252
REMARK  106  A    between atoms: _252  and  _253
REMARK  107  A    between atoms: _262  and  _264
REMARK  108  A    between atoms: _264  and  _265
REMARK  109  A    between atoms: _264  and  _267
REMARK  110  A    between atoms: _267  and  _268
REMARK  111  A    between atoms: _273  and  _275
REMARK  112  A    between atoms: _275  and  _276
REMARK  113  A    between atoms: _275  and  _278
REMARK  114  A    between atoms: _278  and  _279
REMARK  115  A    between atoms: _279  and  _280
REMARK  116  A    between atoms: _280  and  _281
REMARK  117  A    between atoms: _290  and  _292
REMARK  118  A    between atoms: _292  and  _293
REMARK  119  A    between atoms: _292  and  _295
REMARK  120  A    between atoms: _295  and  _296
REMARK  121  A    between atoms: _299  and  _301
REMARK  122  A    between atoms: _301  and  _302
REMARK  123  A    between atoms: _301  and  _304
REMARK  124  A    between atoms: _304  and  _305
REMARK  125  A    between atoms: _308  and  _310
REMARK  126  A    between atoms: _310  and  _311
REMARK  127  A    between atoms: _310  and  _313
REMARK  128  A    between atoms: _313  and  _314
REMARK  129  A    between atoms: _317  and  _319
REMARK  130  A    between atoms: _319  and  _320
REMARK  131  A    between atoms: _322  and  _324
REMARK  132  A    between atoms: _324  and  _325
REMARK  133  A    between atoms: _328  and  _330
REMARK  134  A    between atoms: _330  and  _331
REMARK  135  A    between atoms: _330  and  _333
REMARK  136  A    between atoms: _333  and  _334
REMARK  137  A    between atoms: _337  and  _339
REMARK  138  A    between atoms: _339  and  _340
REMARK  139  A    between atoms: _339  and  _342
REMARK  140  A    between atoms: _342  and  _343
REMARK  141  A    between atoms: _346  and  _348
REMARK  142  A    between atoms: _348  and  _349
REMARK  143  A    between atoms: _348  and  _351
REMARK  144  A    between atoms: _351  and  _352
REMARK  145  A    between atoms: _355  and  _357
REMARK  146  A    between atoms: _357  and  _358
REMARK  147  A    between atoms: _357  and  _360
REMARK  148  A    between atoms: _364  and  _365
REMARK  149  A    between atoms: _370  and  _372
REMARK  150  A    between atoms: _372  and  _373
REMARK  151  A    between atoms: _372  and  _375
REMARK  152  A    between atoms: _375  and  _376
REMARK  153  A    between atoms: _376  and  _377
REMARK  154  A    between atoms: _377  and  _378
REMARK  155  A    between atoms: _378  and  _379
REMARK  156  A    between atoms: _383  and  _385
REMARK  157  A    between atoms: _385  and  _386
REMARK  158  A    between atoms: _385  and  _388
REMARK  159  A    between atoms: _388  and  _389
REMARK  160  A    between atoms: _389  and  _390
REMARK  161  A    between atoms: _392  and  _394
REMARK  162  A    between atoms: _394  and  _395
REMARK  163  A    between atoms: _394  and  _397
REMARK  164  A    between atoms: _397  and  _398
REMARK  165  A    between atoms: _401  and  _403
REMARK  166  A    between atoms: _403  and  _404
REMARK  167  A    between atoms: _406  and  _408
REMARK  168  A    between atoms: _408  and  _409
REMARK  169  A    between atoms: _411  and  _413
REMARK  170  A    between atoms: _413  and  _414
REMARK  171  A    between atoms: _413  and  _416
REMARK  172  A    between atoms: _416  and  _417
REMARK  173  A    between atoms: _420  and  _422
REMARK  174  A    between atoms: _422  and  _423
REMARK  175  A    between atoms: _425  and  _427
REMARK  176  A    between atoms: _427  and  _428
REMARK  177  A    between atoms: _430  and  _432
REMARK  178  A    between atoms: _432  and  _433
REMARK  179  A    between atoms: _432  and  _435
REMARK  180  A    between atoms: _435  and  _436
REMARK  181  A    between atoms: _442  and  _444
REMARK  182  A    between atoms: _444  and  _445
REMARK  183  A    between atoms: _444  and  _447
REMARK  184  A    between atoms: _447  and  _448
REMARK  185  A    between atoms: _451  and  _453
REMARK  186  A    between atoms: _453  and  _454
REMARK  187  A    between atoms: _453  and  _456
REMARK  188  A    between atoms: _459  and  _461
REMARK  189  A    between atoms: _461  and  _462
REMARK  190  A    between atoms: _461  and  _464
REMARK  191  A    between atoms: _464  and  _465
REMARK  192  A    between atoms: _465  and  _466
REMARK  193  A    between atoms: _471  and  _473
REMARK  194  A    between atoms: _473  and  _474
REMARK  195  A    between atoms: _473  and  _476
REMARK  196  A    between atoms: _476  and  _477
REMARK  197  A    between atoms: _481  and  _482
REMARK  198  A    between atoms: _487  and  _489
REMARK  199  A    between atoms: _489  and  _490
REMARK  200  A    between atoms: _489  and  _492
REMARK  201  A    between atoms: _492  and  _493
REMARK  202  A    between atoms: _497  and  _498
REMARK  203  A    between atoms: _503  and  _505
REMARK  204  A    between atoms: _505  and  _506
REMARK  205  A    between atoms: _509  and  _511
REMARK  206  A    between atoms: _511  and  _512
REMARK  207  A    between atoms: _511  and  _514
REMARK  208  A    between atoms: _514  and  _515
REMARK  209  A    between atoms: _520  and  _522
REMARK  210  A    between atoms: _522  and  _523
REMARK  211  A    between atoms: _522  and  _525
REMARK  212  A    between atoms: _525  and  _526
REMARK  213  A    between atoms: _529  and  _531
REMARK  214  A    between atoms: _531  and  _532
REMARK  215  A    between atoms: _531  and  _534
REMARK  216  A    between atoms: _534  and  _535
REMARK  217  A    between atoms: _538  and  _540
REMARK  218  A    between atoms: _540  and  _541
REMARK  219  A    between atoms: _543  and  _545
REMARK  220  A    between atoms: _545  and  _546
REMARK  221  A    between atoms: _545  and  _548
REMARK  222  A    between atoms: _548  and  _549
REMARK  223  A    between atoms: _549  and  _550
REMARK  224  A    between atoms: _550  and  _551
REMARK  225  A    between atoms: _560  and  _562
REMARK  226  A    between atoms: _562  and  _563
REMARK  227  A    between atoms: _562  and  _565
REMARK  228  A    between atoms: _565  and  _566
REMARK                            x       y       z     vdW  Elec       q    Type
REMARK                         _______ _______ _______ _____ _____    ______ ____
ROOT
ATOM      1  CA  VAL A   1      24.400  25.786   5.245  0.00  0.00    +0.133 C 
ENDROOT
BRANCH   1   2
ATOM      2  CB  VAL A   1      23.494  26.376   6.342  0.00  0.00    +0.023 C 
ATOM      3  CG2 VAL A   1      24.294  27.139   7.387  0.00  0.00    +0.002 C 
ATOM      4  CG1 VAL A   1      22.671  25.291   7.019  0.00  0.00    +0.002 C 
ENDBRANCH   1   2
BRANCH   1   5
ATOM      5  N   VAL A   1      25.315  24.795   5.811  0.00  0.00    -0.239 NA
ATOM      6  H   VAL A   1      26.131  25.138   6.356  0.00  0.00    +0.142 HD
ENDBRANCH   1   5
BRANCH   1   7
ATOM      7  C   VAL A   1      25.191  26.895   4.570  0.00  0.00    +0.224 C 
ATOM      8  O   VAL A   1      26.394  27.036   4.779  0.00  0.00    -0.287 OA
ENDBRANCH   1   7
TORSDOF 3
REMARK  Name = ../refined-set-2016/2aoe/2aoe_pocket.pdb
REMARK  228 active torsions:
REMARK  status: ('A' for Active; 'I' for Inactive)
REMARK    1  A    between atoms: _1  and  _3
REMARK    2  A    between atoms: _3  and  _4
REMARK    3  A    between atoms: _3  and  _6
REMARK    4  A    between atoms: _6  and  _7
REMARK    5  A    between atoms: _7  and  _8
REMARK    6  A    between atoms: _8  and  _9
REMARK    7  A    between atoms: _18  and  _20
REMARK    8  A    between atoms: _20  and  _21
REMARK    9  A    between atoms: _20  and  _23
REMARK   10  A    between atoms: _23  and  _24
REMARK   11  A    between atoms: _27  and  _29
REMARK   12  A    between atoms: _29  and  _30
REMARK   13  A    between atoms: _29  and  _32
REMARK   14  A    between atoms: _32  and  _33
REMARK   15  A    between atoms: _36  and  _38
REMARK   16  A    between atoms: _38  and  _39
REMARK   17  A    between atoms: _38  and  _41
REMARK   18  A    between atoms: _41  and  _42
REMARK   19  A    between atoms: _45  and  _47
REMARK   20  A    between atoms: _47  and  _48
REMARK   21  A    between atoms: _50  and  _52
REMARK   22  A    between atoms: _52  and  _53
REMARK   23  A    between atoms: _56  and  _58
REMARK   24  A    between atoms: _58  and  _59
REMARK   25  A    between atoms: _58  and  _61
REMARK   26  A    between atoms: _61  and  _62
REMARK   27  A    between atoms: _65  and  _67
REMARK   28  A    between atoms: _67  and  _68
REMARK   29  A    between atoms: _67  and  _70
REMARK   30  A    between atoms: _70  and  _71
REMARK   31  A    between atoms: _74  and  _76
REMARK   32  A    between atoms: _76  and  _77
REMARK   33  A    between atoms: _76  and  _79
REMARK   34  A    between atoms: _79  and  _80
REMARK   35  A    between atoms: _83  and  _85
REMARK   36  A    between atoms: _85  and  _86
REMARK   37  A    between atoms: _85  and  _88
REMARK   38  A    between atoms: _91  and  _93
REMARK   39  A    between atoms: _93  and  _94
REMARK   40  A    between atoms: _93  and  _96
REMARK   41  A    between atoms: _97  and  _98
REMARK   42  A    between atoms: _98  and  _99
REMARK   43  A    between atoms: _99  and  _100
REMARK   44  A    between atoms: _104  and  _106
REMARK   45  A    between atoms: _106  and  _107
REMARK   46  A    between atoms: _106  and  _109
REMARK   47  A    between atoms: _109  and  _110
REMARK   48  A    between atoms: _110  and  _111
REMARK   49  A    between atoms: _113  and  _115
REMARK   50  A    between atoms: _115  and  _116
REMARK   51  A    between atoms: _115  and  _118
REMARK   52  A    between atoms: _118  and  _119
REMARK   53  A    between atoms: _122  and  _124
REMARK   54  A    between atoms: _124  and  _125
REMARK   55  A    between atoms: _127  and  _129
REMARK   56  A    between atoms: _129  and  _130
REMARK   57  A    between atoms: _132  and  _134
REMARK   58  A    between atoms: _134  and  _135
REMARK   59  A    between atoms: _134  and  _137
REMARK   60  A    between atoms: _137  and  _138
REMARK   61  A    between atoms: _141  and  _143
REMARK   62  A    between atoms: _143  and  _144
REMARK   63  A    between atoms: _146  and  _148
REMARK   64  A    between atoms: _148  and  _149
REMARK   65  A    between atoms: _151  and  _153
REMARK   66  A    between atoms: _153  and  _154
REMARK   67  A    between atoms: _153  and  _156
REMARK   68  A    between atoms: _156  and  _157
REMARK   69  A    between atoms: _163  and  _165
REMARK   70  A    between atoms: _165  and  _166
REMARK   71  A    between atoms: _165  and  _168
REMARK   72  A    between atoms: _168  and  _169
REMARK   73  A    between atoms: _172  and  _174
REMARK   74  A    between atoms: _174  and  _175
REMARK   75  A    between atoms: _174  and  _177
REMARK   76  A    between atoms: _180  and  _182
REMARK   77  A    between atoms: _182  and  _183
REMARK   78  A    between atoms: _182  and  _185
REMARK   79  A    between atoms: _185  and  _186
REMARK   80  A    between atoms: _189  and  _191
REMARK   81  A    between atoms: _191  and  _192
REMARK   82  A    between atoms: _191  and  _194
REMARK   83  A    between atoms: _194  and  _195
REMARK   84  A    between atoms: _199  and  _200
REMARK   85  A    between atoms: _205  and  _207
REMARK   86  A    between atoms: _207  and  _208
REMARK   87  A    between atoms: _211  and  _213
REMARK   88  A    between atoms: _213  and  _214
REMARK   89  A    between atoms: _213  and  _216
REMARK   90  A    between atoms: _216  and  _217
REMARK   91  A    between atoms: _222  and  _224
REMARK   92  A    between atoms: _224  and  _225
REMARK   93  A    between atoms: _224  and  _227
REMARK   94  A    between atoms: _227  and  _228
REMARK   95  A    between atoms: _231  and  _233
REMARK   96  A    between atoms: _233  and  _234
REMARK   97  A    between atoms: _233  and  _236
REMARK   98  A    between atoms: _236  and  _237
REMARK   99  A    between atoms: _240  and  _242
REMARK  100  A    between atoms: _242  and  _243
REMARK  101  A    between atoms: _245  and  _247
REMARK  102  A    between atoms: _247  and  _248
REMARK  103  A    between atoms: _247  and  _250
REMARK  104  A    between atoms: _250  and  _251
REMARK  105  A    between atoms: _251  and  _252
REMARK  106  A    between atoms: _252  and  _253
REMARK  107  A    between atoms: _262  and  _264
REMARK  108  A    between atoms: _264  and  _265
REMARK  109  A    between atoms: _264  and  _267
REMARK  110  A    between atoms: _267  and  _268
REMARK  111  A    between atoms: _273  and  _275
REMARK  112  A    between atoms: _275  and  _276
REMARK  113  A    between atoms: _275  and  _278
REMARK  114  A    between atoms: _278  and  _279
REMARK  115  A    between atoms: _279  and  _280
REMARK  116  A    between atoms: _280  and  _281
REMARK  117  A    between atoms: _290  and  _292
REMARK  118  A    between atoms: _292  and  _293
REMARK  119  A    between atoms: _292  and  _295
REMARK  120  A    between atoms: _295  and  _296
REMARK  121  A    between atoms: _299  and  _301
REMARK  122  A    between atoms: _301  and  _302
REMARK  123  A    between atoms: _301  and  _304
REMARK  124  A    between atoms: _304  and  _305
REMARK  125  A    between atoms: _308  and  _310
REMARK  126  A    between atoms: _310  and  _311
REMARK  127  A    between atoms: _310  and  _313
REMARK  128  A    between atoms: _313  and  _314
REMARK  129  A    between atoms: _317  and  _319
REMARK  130  A    between atoms: _319  and  _320
REMARK  131  A    between atoms: _322  and  _324
REMARK  132  A    between atoms: _324  and  _325
REMARK  133  A    between atoms: _328  and  _330
REMARK  134  A    between atoms: _330  and  _331
REMARK  135  A    between atoms: _330  and  _333
REMARK  136  A    between atoms: _333  and  _334
REMARK  137  A    between atoms: _337  and  _339
REMARK  138  A    between atoms: _339  and  _340
REMARK  139  A    between atoms: _339  and  _342
REMARK  140  A    between atoms: _342  and  _343
REMARK  141  A    between atoms: _346  and  _348
REMARK  142  A    between atoms: _348  and  _349
REMARK  143  A    between atoms: _348  and  _351
REMARK  144  A    between atoms: _351  and  _352
REMARK  145  A    between atoms: _355  and  _357
REMARK  146  A    between atoms: _357  and  _358
REMARK  147  A    between atoms: _357  and  _360
REMARK  148  A    between atoms: _364  and  _365
REMARK  149  A    between atoms: _370  and  _372
REMARK  150  A    between atoms: _372  and  _373
REMARK  151  A    between atoms: _372  and  _375
REMARK  152  A    between atoms: _375  and  _376
REMARK  153  A    between atoms: _376  and  _377
REMARK  154  A    between atoms: _377  and  _378
REMARK  155  A    between atoms: _378  and  _379
REMARK  156  A    between atoms: _383  and  _385
REMARK  157  A    between atoms: _385  and  _386
REMARK  158  A    between atoms: _385  and  _388
REMARK  159  A    between atoms: _388  and  _389
REMARK  160  A    between atoms: _389  and  _390
REMARK  161  A    between atoms: _392  and  _394
REMARK  162  A    between atoms: _394  and  _395
REMARK  163  A    between atoms: _394  and  _397
REMARK  164  A    between atoms: _397  and  _398
REMARK  165  A    between atoms: _401  and  _403
REMARK  166  A    between atoms: _403  and  _404
REMARK  167  A    between atoms: _406  and  _408
REMARK  168  A    between atoms: _408  and  _409
REMARK  169  A    between atoms: _411  and  _413
REMARK  170  A    between atoms: _413  and  _414
REMARK  171  A    between atoms: _413  and  _416
REMARK  172  A    between atoms: _416  and  _417
REMARK  173  A    between atoms: _420  and  _422
REMARK  174  A    between atoms: _422  and  _423
REMARK  175  A    between atoms: _425  and  _427
REMARK  176  A    between atoms: _427  and  _428
REMARK  177  A    between atoms: _430  and  _432
REMARK  178  A    between atoms: _432  and  _433
REMARK  179  A    between atoms: _432  and  _435
REMARK  180  A    between atoms: _435  and  _436
REMARK  181  A    between atoms: _442  and  _444
REMARK  182  A    between atoms: _444  and  _445
REMARK  183  A    between atoms: _444  and  _447
REMARK  184  A    between atoms: _447  and  _448
REMARK  185  A    between atoms: _451  and  _453
REMARK  186  A    between atoms: _453  and  _454
REMARK  187  A    between atoms: _453  and  _456
REMARK  188  A    between atoms: _459  and  _461
REMARK  189  A    between atoms: _461  and  _462
REMARK  190  A    between atoms: _461  and  _464
REMARK  191  A    between atoms: _464  and  _465
REMARK  192  A    between atoms: _465  and  _466
REMARK  193  A    between atoms: _471  and  _473
REMARK  194  A    between atoms: _473  and  _474
REMARK  195  A    between atoms: _473  and  _476
REMARK  196  A    between atoms: _476  and  _477
REMARK  197  A    between atoms: _481  and  _482
REMARK  198  A    between atoms: _487  and  _489
REMARK  199  A    between atoms: _489  and  _490
REMARK  200  A    between atoms: _489  and  _492
REMARK  201  A    between atoms: _492  and  _493
REMARK  202  A    between atoms: _497  and  _498
REMARK  203  A    between atoms: _503  and  _505
REMARK  204  A    between atoms: _505  and  _506
REMARK  205  A    between atoms: _509  and  _511
REMARK  206  A    between atoms: _511  and  _512
REMARK  207  A    between atoms: _511  and  _514
REMARK  208  A    between atoms: _514  and  _515
REMARK  209  A    between atoms: _520  and  _522
REMARK  210  A    between atoms: _522  and  _523
REMARK  211  A    between atoms: _522  and  _525
REMARK  212  A    between atoms: _525  and  _526
REMARK  213  A    between atoms: _529  and  _531
REMARK  214  A    between atoms: _531  and  _532
REMARK  215  A    between atoms: _531  and  _534
REMARK  216  A    between atoms: _534  and  _535
REMARK  217  A    between atoms: _538  and  _540
REMARK  218  A    between atoms: _540  and  _541
REMARK  219  A    between atoms: _543  and  _545
REMARK  220  A    between atoms: _545  and  _546
REMARK  221  A    between atoms: _545  and  _548
REMARK  222  A    between atoms: _548  and  _549
REMARK  223  A    between atoms: _549  and  _550
REMARK  224  A    between atoms: _550  and  _551
REMARK  225  A    between atoms: _560  and  _562
REMARK  226  A    between atoms: _562  and  _563
REMARK  227  A    between atoms: _562  and  _565
REMARK  228  A    between atoms: _565  and  _566
REMARK                            x       y       z     vdW  Elec       q    Type
REMARK                         _______ _______ _______ _____ _____    ______ ____
ROOT
ATOM      1  CA  LEU A   1      21.024  30.503   6.523  0.00  0.00    +0.133 C 
ENDROOT
BRANCH   1   2
ATOM      2  N   LEU A   1      20.309  31.700   6.900  0.00  0.00    -0.239 NA
ATOM      3  H   LEU A   1      19.659  31.648   7.710  0.00  0.00    +0.142 HD
ENDBRANCH   1   2
BRANCH   1   4
ATOM      4  C   LEU A   1      20.150  29.601   5.664  0.00  0.00    +0.224 C 
ATOM      5  O   LEU A   1      18.942  29.450   5.940  0.00  0.00    -0.287 OA
ENDBRANCH   1   4
BRANCH   1   6
ATOM      6  CB  LEU A   1      21.462  29.777   7.786  0.00  0.00    +0.025 C 
BRANCH   6   7
ATOM      7  CG  LEU A   1      22.168  30.610   8.857  0.00  0.00    +0.002 C 
ATOM      8  CD2 LEU A   1      22.592  29.711  10.008  0.00  0.00    +0.000 C 
ATOM      9  CD1 LEU A   1      23.379  31.336   8.307  0.00  0.00    +0.000 C 
ENDBRANCH   6   7
ENDBRANCH   1   6
TORSDOF 4
REMARK  Name = ../refined-set-2016/2aoe/2aoe_pocket.pdb
REMARK  228 active torsions:
REMARK  status: ('A' for Active; 'I' for Inactive)
REMARK    1  A    between atoms: _1  and  _3
REMARK    2  A    between atoms: _3  and  _4
REMARK    3  A    between atoms: _3  and  _6
REMARK    4  A    between atoms: _6  and  _7
REMARK    5  A    between atoms: _7  and  _8
REMARK    6  A    between atoms: _8  and  _9
REMARK    7  A    between atoms: _18  and  _20
REMARK    8  A    between atoms: _20  and  _21
REMARK    9  A    between atoms: _20  and  _23
REMARK   10  A    between atoms: _23  and  _24
REMARK   11  A    between atoms: _27  and  _29
REMARK   12  A    between atoms: _29  and  _30
REMARK   13  A    between atoms: _29  and  _32
REMARK   14  A    between atoms: _32  and  _33
REMARK   15  A    between atoms: _36  and  _38
REMARK   16  A    between atoms: _38  and  _39
REMARK   17  A    between atoms: _38  and  _41
REMARK   18  A    between atoms: _41  and  _42
REMARK   19  A    between atoms: _45  and  _47
REMARK   20  A    between atoms: _47  and  _48
REMARK   21  A    between atoms: _50  and  _52
REMARK   22  A    between atoms: _52  and  _53
REMARK   23  A    between atoms: _56  and  _58
REMARK   24  A    between atoms: _58  and  _59
REMARK   25  A    between atoms: _58  and  _61
REMARK   26  A    between atoms: _61  and  _62
REMARK   27  A    between atoms: _65  and  _67
REMARK   28  A    between atoms: _67  and  _68
REMARK   29  A    between atoms: _67  and  _70
REMARK   30  A    between atoms: _70  and  _71
REMARK   31  A    between atoms: _74  and  _76
REMARK   32  A    between atoms: _76  and  _77
REMARK   33  A    between atoms: _76  and  _79
REMARK   34  A    between atoms: _79  and  _80
REMARK   35  A    between atoms: _83  and  _85
REMARK   36  A    between atoms: _85  and  _86
REMARK   37  A    between atoms: _85  and  _88
REMARK   38  A    between atoms: _91  and  _93
REMARK   39  A    between atoms: _93  and  _94
REMARK   40  A    between atoms: _93  and  _96
REMARK   41  A    between atoms: _97  and  _98
REMARK   42  A    between atoms: _98  and  _99
REMARK   43  A    between atoms: _99  and  _100
REMARK   44  A    between atoms: _104  and  _106
REMARK   45  A    between atoms: _106  and  _107
REMARK   46  A    between atoms: _106  and  _109
REMARK   47  A    between atoms: _109  and  _110
REMARK   48  A    between atoms: _110  and  _111
REMARK   49  A    between atoms: _113  and  _115
REMARK   50  A    between atoms: _115  and  _116
REMARK   51  A    between atoms: _115  and  _118
REMARK   52  A    between atoms: _118  and  _119
REMARK   53  A    between atoms: _122  and  _124
REMARK   54  A    between atoms: _124  and  _125
REMARK   55  A    between atoms: _127  and  _129
REMARK   56  A    between atoms: _129  and  _130
REMARK   57  A    between atoms: _132  and  _134
REMARK   58  A    between atoms: _134  and  _135
REMARK   59  A    between atoms: _134  and  _137
REMARK   60  A    between atoms: _137  and  _138
REMARK   61  A    between atoms: _141  and  _143
REMARK   62  A    between atoms: _143  and  _144
REMARK   63  A    between atoms: _146  and  _148
REMARK   64  A    between atoms: _148  and  _149
REMARK   65  A    between atoms: _151  and  _153
REMARK   66  A    between atoms: _153  and  _154
REMARK   67  A    between atoms: _153  and  _156
REMARK   68  A    between atoms: _156  and  _157
REMARK   69  A    between atoms: _163  and  _165
REMARK   70  A    between atoms: _165  and  _166
REMARK   71  A    between atoms: _165  and  _168
REMARK   72  A    between atoms: _168  and  _169
REMARK   73  A    between atoms: _172  and  _174
REMARK   74  A    between atoms: _174  and  _175
REMARK   75  A    between atoms: _174  and  _177
REMARK   76  A    between atoms: _180  and  _182
REMARK   77  A    between atoms: _182  and  _183
REMARK   78  A    between atoms: _182  and  _185
REMARK   79  A    between atoms: _185  and  _186
REMARK   80  A    between atoms: _189  and  _191
REMARK   81  A    between atoms: _191  and  _192
REMARK   82  A    between atoms: _191  and  _194
REMARK   83  A    between atoms: _194  and  _195
REMARK   84  A    between atoms: _199  and  _200
REMARK   85  A    between atoms: _205  and  _207
REMARK   86  A    between atoms: _207  and  _208
REMARK   87  A    between atoms: _211  and  _213
REMARK   88  A    between atoms: _213  and  _214
REMARK   89  A    between atoms: _213  and  _216
REMARK   90  A    between atoms: _216  and  _217
REMARK   91  A    between atoms: _222  and  _224
REMARK   92  A    between atoms: _224  and  _225
REMARK   93  A    between atoms: _224  and  _227
REMARK   94  A    between atoms: _227  and  _228
REMARK   95  A    between atoms: _231  and  _233
REMARK   96  A    between atoms: _233  and  _234
REMARK   97  A    between atoms: _233  and  _236
REMARK   98  A    between atoms: _236  and  _237
REMARK   99  A    between atoms: _240  and  _242
REMARK  100  A    between atoms: _242  and  _243
REMARK  101  A    between atoms: _245  and  _247
REMARK  102  A    between atoms: _247  and  _248
REMARK  103  A    between atoms: _247  and  _250
REMARK  104  A    between atoms: _250  and  _251
REMARK  105  A    between atoms: _251  and  _252
REMARK  106  A    between atoms: _252  and  _253
REMARK  107  A    between atoms: _262  and  _264
REMARK  108  A    between atoms: _264  and  _265
REMARK  109  A    between atoms: _264  and  _267
REMARK  110  A    between atoms: _267  and  _268
REMARK  111  A    between atoms: _273  and  _275
REMARK  112  A    between atoms: _275  and  _276
REMARK  113  A    between atoms: _275  and  _278
REMARK  114  A    between atoms: _278  and  _279
REMARK  115  A    between atoms: _279  and  _280
REMARK  116  A    between atoms: _280  and  _281
REMARK  117  A    between atoms: _290  and  _292
REMARK  118  A    between atoms: _292  and  _293
REMARK  119  A    between atoms: _292  and  _295
REMARK  120  A    between atoms: _295  and  _296
REMARK  121  A    between atoms: _299  and  _301
REMARK  122  A    between atoms: _301  and  _302
REMARK  123  A    between atoms: _301  and  _304
REMARK  124  A    between atoms: _304  and  _305
REMARK  125  A    between atoms: _308  and  _310
REMARK  126  A    between atoms: _310  and  _311
REMARK  127  A    between atoms: _310  and  _313
REMARK  128  A    between atoms: _313  and  _314
REMARK  129  A    between atoms: _317  and  _319
REMARK  130  A    between atoms: _319  and  _320
REMARK  131  A    between atoms: _322  and  _324
REMARK  132  A    between atoms: _324  and  _325
REMARK  133  A    between atoms: _328  and  _330
REMARK  134  A    between atoms: _330  and  _331
REMARK  135  A    between atoms: _330  and  _333
REMARK  136  A    between atoms: _333  and  _334
REMARK  137  A    between atoms: _337  and  _339
REMARK  138  A    between atoms: _339  and  _340
REMARK  139  A    between atoms: _339  and  _342
REMARK  140  A    between atoms: _342  and  _343
REMARK  141  A    between atoms: _346  and  _348
REMARK  142  A    between atoms: _348  and  _349
REMARK  143  A    between atoms: _348  and  _351
REMARK  144  A    between atoms: _351  and  _352
REMARK  145  A    between atoms: _355  and  _357
REMARK  146  A    between atoms: _357  and  _358
REMARK  147  A    between atoms: _357  and  _360
REMARK  148  A    between atoms: _364  and  _365
REMARK  149  A    between atoms: _370  and  _372
REMARK  150  A    between atoms: _372  and  _373
REMARK  151  A    between atoms: _372  and  _375
REMARK  152  A    between atoms: _375  and  _376
REMARK  153  A    between atoms: _376  and  _377
REMARK  154  A    between atoms: _377  and  _378
REMARK  155  A    between atoms: _378  and  _379
REMARK  156  A    between atoms: _383  and  _385
REMARK  157  A    between atoms: _385  and  _386
REMARK  158  A    between atoms: _385  and  _388
REMARK  159  A    between atoms: _388  and  _389
REMARK  160  A    between atoms: _389  and  _390
REMARK  161  A    between atoms: _392  and  _394
REMARK  162  A    between atoms: _394  and  _395
REMARK  163  A    between atoms: _394  and  _397
REMARK  164  A    between atoms: _397  and  _398
REMARK  165  A    between atoms: _401  and  _403
REMARK  166  A    between atoms: _403  and  _404
REMARK  167  A    between atoms: _406  and  _408
REMARK  168  A    between atoms: _408  and  _409
REMARK  169  A    between atoms: _411  and  _413
REMARK  170  A    between atoms: _413  and  _414
REMARK  171  A    between atoms: _413  and  _416
REMARK  172  A    between atoms: _416  and  _417
REMARK  173  A    between atoms: _420  and  _422
REMARK  174  A    between atoms: _422  and  _423
REMARK  175  A    between atoms: _425  and  _427
REMARK  176  A    between atoms: _427  and  _428
REMARK  177  A    between atoms: _430  and  _432
REMARK  178  A    between atoms: _432  and  _433
REMARK  179  A    between atoms: _432  and  _435
REMARK  180  A    between atoms: _435  and  _436
REMARK  181  A    between atoms: _442  and  _444
REMARK  182  A    between atoms: _444  and  _445
REMARK  183  A    between atoms: _444  and  _447
REMARK  184  A    between atoms: _447  and  _448
REMARK  185  A    between atoms: _451  and  _453
REMARK  186  A    between atoms: _453  and  _454
REMARK  187  A    between atoms: _453  and  _456
REMARK  188  A    between atoms: _459  and  _461
REMARK  189  A    between atoms: _461  and  _462
REMARK  190  A    between atoms: _461  and  _464
REMARK  191  A    between atoms: _464  and  _465
REMARK  192  A    between atoms: _465  and  _466
REMARK  193  A    between atoms: _471  and  _473
REMARK  194  A    between atoms: _473  and  _474
REMARK  195  A    between atoms: _473  and  _476
REMARK  196  A    between atoms: _476  and  _477
REMARK  197  A    between atoms: _481  and  _482
REMARK  198  A    between atoms: _487  and  _489
REMARK  199  A    between atoms: _489  and  _490
REMARK  200  A    between atoms: _489  and  _492
REMARK  201  A    between atoms: _492  and  _493
REMARK  202  A    between atoms: _497  and  _498
REMARK  203  A    between atoms: _503  and  _505
REMARK  204  A    between atoms: _505  and  _506
REMARK  205  A    between atoms: _509  and  _511
REMARK  206  A    between atoms: _511  and  _512
REMARK  207  A    between atoms: _511  and  _514
REMARK  208  A    between atoms: _514  and  _515
REMARK  209  A    between atoms: _520  and  _522
REMARK  210  A    between atoms: _522  and  _523
REMARK  211  A    between atoms: _522  and  _525
REMARK  212  A    between atoms: _525  and  _526
REMARK  213  A    between atoms: _529  and  _531
REMARK  214  A    between atoms: _531  and  _532
REMARK  215  A    between atoms: _531  and  _534
REMARK  216  A    between atoms: _534  and  _535
REMARK  217  A    between atoms: _538  and  _540
REMARK  218  A    between atoms: _540  and  _541
REMARK  219  A    between atoms: _543  and  _545
REMARK  220  A    between atoms: _545  and  _546
REMARK  221  A    between atoms: _545  and  _548
REMARK  222  A    between atoms: _548  and  _549
REMARK  223  A    between atoms: _549  and  _550
REMARK  224  A    between atoms: _550  and  _551
REMARK  225  A    between atoms: _560  and  _562
REMARK  226  A    between atoms: _562  and  _563
REMARK  227  A    between atoms: _562  and  _565
REMARK  228  A    between atoms: _565  and  _566
REMARK                            x       y       z     vdW  Elec       q    Type
REMARK                         _______ _______ _______ _____ _____    ______ ____
ROOT
ATOM      1  C   ILE A   5      13.287  29.763  11.347  0.00  0.00    +0.241 C 
ATOM      2  N   ILE A   6      12.470  30.527  12.064  0.00  0.00    -0.297 N 
ATOM      3  H   ILE A   6      11.595  30.108  12.438  0.00  0.00    +0.150 HD
ATOM      4  O   ILE A   5      14.262  30.175  10.710  0.00  0.00    -0.273 OA
ENDROOT
BRANCH   2   5
ATOM      5  CA  ILE A   6      12.751  31.927  12.347  0.00  0.00    +0.149 C 
BRANCH   5   6
ATOM      6  C   ILE A   6      13.372  31.951  13.745  0.00  0.00    +0.241 C 
ATOM      7  O   ILE A   6      12.701  31.615  14.729  0.00  0.00    -0.273 OA
ATOM      8  N   GLY A   7      14.667  32.311  13.762  0.00  0.00    -0.295 N 
ATOM      9  H   GLY A   7      15.148  32.559  12.874  0.00  0.00    +0.150 HD
BRANCH   8  10
ATOM     10  CA  GLY A   7      15.389  32.354  15.004  0.00  0.00    +0.176 C 
BRANCH  10  11
ATOM     11  C   GLY A   7      15.480  33.750  15.604  0.00  0.00    +0.243 C 
ATOM     12  N   ARG A   8      16.228  33.861  16.707  0.00  0.00    -0.297 N 
ATOM     13  H   ARG A   8      16.842  33.070  16.989  0.00  0.00    +0.150 HD
ATOM     14  O   GLY A   7      14.890  34.698  15.072  0.00  0.00    -0.273 OA
BRANCH  12  15
ATOM     15  CA  ARG A   8      16.199  35.061  17.516  0.00  0.00    +0.149 C 
BRANCH  15  16
ATOM     16  C   ARG A   8      16.714  36.260  16.752  0.00  0.00    +0.241 C 
ATOM     17  O   ARG A   8      16.289  37.379  17.015  0.00  0.00    -0.273 OA
ATOM     18  N   ASN A   9      17.632  36.051  15.804  0.00  0.00    -0.298 N 
ATOM     19  H   ASN A   9      17.958  35.087  15.588  0.00  0.00    +0.150 HD
BRANCH  18  20
ATOM     20  CA  ASN A   9      18.173  37.200  15.073  0.00  0.00    +0.146 C 
BRANCH  20  21
ATOM     21  C   ASN A   9      17.107  37.998  14.322  0.00  0.00    +0.227 C 
ATOM     22  O   ASN A   9      17.274  39.209  14.118  0.00  0.00    -0.286 OA
ENDBRANCH  20  21
BRANCH  20  23
ATOM     23  CB  ASN A   9      19.264  36.745  14.099  0.00  0.00    +0.112 C 
BRANCH  23  24
ATOM     24  CG  ASN A   9      18.761  35.987  12.902  0.00  0.00    +0.222 C 
ATOM     25  OD1 ASN A   9      18.050  35.008  13.035  0.00  0.00    -0.275 OA
ATOM     26  ND2 ASN A   9      19.136  36.477  11.731  0.00  0.00    -0.329 N 
ATOM     27 HD21 ASN A   9      19.746  37.318  11.691  0.00  0.00    +0.145 HD
ATOM     28 HD22 ASN A   9      18.821  36.021  10.851  0.00  0.00    +0.145 HD
ENDBRANCH  23  24
ENDBRANCH  20  23
ENDBRANCH  18  20
ENDBRANCH  15  16
BRANCH  15  29
ATOM     29  CB  ARG A   8      16.998  34.887  18.798  0.00  0.00    +0.033 C 
BRANCH  29  30
ATOM     30  CG  ARG A   8      16.437  33.880  19.785  0.00  0.00    +0.045 C 
BRANCH  30  31
ATOM     31  CD  ARG A   8      17.209  33.788  21.094  0.00  0.00    +0.174 C 
BRANCH  31  32
ATOM     32  NE  ARG A   8      18.603  33.407  20.900  0.00  0.00    -0.265 N 
ATOM     33  CZ  ARG A   8      19.661  34.204  20.866  0.00  0.00    +0.342 C 
ATOM     34  NH2 ARG A   8      19.569  35.525  21.030  0.00  0.00    -0.292 N 
ATOM     35 HH21 ARG A   8      18.641  35.966  21.192  0.00  0.00    +0.255 HD
ATOM     36 HH22 ARG A   8      20.425  36.114  20.996  0.00  0.00    +0.255 HD
ATOM     37  NH1 ARG A   8      20.857  33.631  20.660  0.00  0.00    -0.292 N 
ATOM     38 HH11 ARG A   8      21.715  34.217  20.626  0.00  0.00    +0.255 HD
ATOM     39 HH12 ARG A   8      20.925  32.601  20.535  0.00  0.00    +0.255 HD
ATOM     40  HE  ARG A   8      18.788  32.392  20.774  0.00  0.00    +0.259 HD
ENDBRANCH  31  32
ENDBRANCH  30  31
ENDBRANCH  29  30
ENDBRANCH  15  29
ENDBRANCH  12  15
ENDBRANCH  10  11
ENDBRANCH   8  10
ENDBRANCH   5   6
BRANCH   5  41
ATOM     41  CB  ILE A   6      11.519  32.843  12.283  0.00  0.00    +0.027 C 
ATOM     42  CG2 ILE A   6      11.841  34.311  12.543  0.00  0.00    +0.002 C 
BRANCH  41  43
ATOM     43  CG1 ILE A   6      10.803  32.724  10.947  0.00  0.00    +0.002 C 
ATOM     44  CD1 ILE A   6      11.657  33.022   9.750  0.00  0.00    +0.000 C 
ENDBRANCH  41  43
ENDBRANCH   5  41
ENDBRANCH   2   5
BRANCH   1  45
ATOM     45  CA  ILE A   5      12.938  28.285  11.320  0.00  0.00    +0.149 C 
BRANCH  45  48
ATOM     46  C   ASN A   4      11.811  27.135   9.494  0.00  0.00    +0.241 C 
ATOM     47  O   ASN A   4      10.740  26.987  10.101  0.00  0.00    -0.273 OA
ATOM     48  N   ILE A   5      12.866  27.751   9.990  0.00  0.00    -0.297 N 
ATOM     49  H   ILE A   5      13.700  27.857   9.378  0.00  0.00    +0.150 HD
BRANCH  46  50
ATOM     50  CA  ASN A   4      11.950  26.546   8.088  0.00  0.00    +0.158 C 
BRANCH  50  53
ATOM     51  C   ALA A   3      12.382  24.255   8.719  0.00  0.00    +0.241 C 
ATOM     52  O   ALA A   3      13.525  24.549   9.125  0.00  0.00    -0.273 OA
ATOM     53  N   ASN A   4      11.582  25.133   8.143  0.00  0.00    -0.297 N 
ATOM     54  H   ASN A   4      10.684  24.817   7.725  0.00  0.00    +0.150 HD
BRANCH  51  55
ATOM     55  CA  ALA A   3      11.841  22.858   8.929  0.00  0.00    +0.149 C 
ATOM     56  CB  ALA A   3      11.226  22.797  10.313  0.00  0.00    +0.031 C 
BRANCH  55  58
ATOM     57  C   PRO A   2      12.667  20.639   8.382  0.00  0.00    +0.241 C 
ATOM     58  N   ALA A   3      12.919  21.871   8.760  0.00  0.00    -0.297 N 
ATOM     59  H   ALA A   3      13.902  22.155   8.944  0.00  0.00    +0.150 HD
ATOM     60  O   PRO A   2      11.518  20.269   8.178  0.00  0.00    -0.273 OA
BRANCH  57  66
ATOM     61  C   THR A   1      15.564  21.139   7.330  0.00  0.00    +0.244 C 
ATOM     62  N   PRO A   2      15.136  20.385   8.332  0.00  0.00    -0.272 N 
ATOM     63  CD  PRO A   2      15.822  20.121   9.609  0.00  0.00    +0.094 C 
ATOM     64  CG  PRO A   2      14.757  19.428  10.417  0.00  0.00    +0.024 C 
ATOM     65  CB  PRO A   2      13.838  18.752   9.466  0.00  0.00    +0.031 C 
ATOM     66  CA  PRO A   2      13.847  19.698   8.246  0.00  0.00    +0.152 C 
ATOM     67  O   THR A   1      14.888  21.290   6.327  0.00  0.00    -0.273 OA
BRANCH  61  68
ATOM     68  CA  THR A   1      16.893  21.860   7.439  0.00  0.00    +0.172 C 
BRANCH  68  69
ATOM     69  N   THR A   1      17.610  21.863   6.167  0.00  0.00    -0.236 NA
ATOM     70  H   THR A   1      17.581  22.716   5.573  0.00  0.00    +0.142 HD
ENDBRANCH  68  69
BRANCH  68  71
ATOM     71  CB  THR A   1      16.696  23.307   7.939  0.00  0.00    +0.135 C 
ATOM     72  CG2 THR A   1      15.974  24.216   6.973  0.00  0.00    +0.034 C 
BRANCH  71  73
ATOM     73  OG1 THR A   1      15.891  23.223   9.127  0.00  0.00    -0.383 OA
ATOM     74  HG1 THR A   1      15.738  24.133   9.485  0.00  0.00    +0.210 HD
ENDBRANCH  71  73
ENDBRANCH  68  71
ENDBRANCH  61  68
ENDBRANCH  57  66
ENDBRANCH  55  58
ENDBRANCH  51  55
ENDBRANCH  50  53
BRANCH  50  75
ATOM     75  CB  ASN A   4      11.023  27.281   7.126  0.00  0.00    +0.114 C 
BRANCH  75  76
ATOM     76  CG  ASN A   4      11.144  26.770   5.710  0.00  0.00    +0.222 C 
ATOM     77  OD1 ASN A   4      12.235  26.475   5.276  0.00  0.00    -0.275 OA
ATOM     78  ND2 ASN A   4      10.023  26.690   5.019  0.00  0.00    -0.329 N 
ATOM     79 HD21 ASN A   4       9.121  26.961   5.459  0.00  0.00    +0.145 HD
ATOM     80 HD22 ASN A   4      10.042  26.356   4.034  0.00  0.00    +0.145 HD
ENDBRANCH  75  76
ENDBRANCH  50  75
ENDBRANCH  46  50
ENDBRANCH  45  48
BRANCH  45  81
ATOM     81  CB  ILE A   5      14.089  27.524  12.045  0.00  0.00    +0.027 C 
ATOM     82  CG2 ILE A   5      14.451  28.251  13.296  0.00  0.00    +0.002 C 
BRANCH  81  83
ATOM     83  CG1 ILE A   5      13.647  26.087  12.321  0.00  0.00    +0.002 C 
ATOM     84  CD1 ILE A   5      14.725  25.039  12.358  0.00  0.00    +0.000 C 
ENDBRANCH  81  83
ENDBRANCH  45  81
ENDBRANCH   1  45
TORSDOF 31
REMARK  Name = ../refined-set-2016/2aoe/2aoe_pocket.pdb
REMARK  228 active torsions:
REMARK  status: ('A' for Active; 'I' for Inactive)
REMARK    1  A    between atoms: _1  and  _3
REMARK    2  A    between atoms: _3  and  _4
REMARK    3  A    between atoms: _3  and  _6
REMARK    4  A    between atoms: _6  and  _7
REMARK    5  A    between atoms: _7  and  _8
REMARK    6  A    between atoms: _8  and  _9
REMARK    7  A    between atoms: _18  and  _20
REMARK    8  A    between atoms: _20  and  _21
REMARK    9  A    between atoms: _20  and  _23
REMARK   10  A    between atoms: _23  and  _24
REMARK   11  A    between atoms: _27  and  _29
REMARK   12  A    between atoms: _29  and  _30
REMARK   13  A    between atoms: _29  and  _32
REMARK   14  A    between atoms: _32  and  _33
REMARK   15  A    between atoms: _36  and  _38
REMARK   16  A    between atoms: _38  and  _39
REMARK   17  A    between atoms: _38  and  _41
REMARK   18  A    between atoms: _41  and  _42
REMARK   19  A    between atoms: _45  and  _47
REMARK   20  A    between atoms: _47  and  _48
REMARK   21  A    between atoms: _50  and  _52
REMARK   22  A    between atoms: _52  and  _53
REMARK   23  A    between atoms: _56  and  _58
REMARK   24  A    between atoms: _58  and  _59
REMARK   25  A    between atoms: _58  and  _61
REMARK   26  A    between atoms: _61  and  _62
REMARK   27  A    between atoms: _65  and  _67
REMARK   28  A    between atoms: _67  and  _68
REMARK   29  A    between atoms: _67  and  _70
REMARK   30  A    between atoms: _70  and  _71
REMARK   31  A    between atoms: _74  and  _76
REMARK   32  A    between atoms: _76  and  _77
REMARK   33  A    between atoms: _76  and  _79
REMARK   34  A    between atoms: _79  and  _80
REMARK   35  A    between atoms: _83  and  _85
REMARK   36  A    between atoms: _85  and  _86
REMARK   37  A    between atoms: _85  and  _88
REMARK   38  A    between atoms: _91  and  _93
REMARK   39  A    between atoms: _93  and  _94
REMARK   40  A    between atoms: _93  and  _96
REMARK   41  A    between atoms: _97  and  _98
REMARK   42  A    between atoms: _98  and  _99
REMARK   43  A    between atoms: _99  and  _100
REMARK   44  A    between atoms: _104  and  _106
REMARK   45  A    between atoms: _106  and  _107
REMARK   46  A    between atoms: _106  and  _109
REMARK   47  A    between atoms: _109  and  _110
REMARK   48  A    between atoms: _110  and  _111
REMARK   49  A    between atoms: _113  and  _115
REMARK   50  A    between atoms: _115  and  _116
REMARK   51  A    between atoms: _115  and  _118
REMARK   52  A    between atoms: _118  and  _119
REMARK   53  A    between atoms: _122  and  _124
REMARK   54  A    between atoms: _124  and  _125
REMARK   55  A    between atoms: _127  and  _129
REMARK   56  A    between atoms: _129  and  _130
REMARK   57  A    between atoms: _132  and  _134
REMARK   58  A    between atoms: _134  and  _135
REMARK   59  A    between atoms: _134  and  _137
REMARK   60  A    between atoms: _137  and  _138
REMARK   61  A    between atoms: _141  and  _143
REMARK   62  A    between atoms: _143  and  _144
REMARK   63  A    between atoms: _146  and  _148
REMARK   64  A    between atoms: _148  and  _149
REMARK   65  A    between atoms: _151  and  _153
REMARK   66  A    between atoms: _153  and  _154
REMARK   67  A    between atoms: _153  and  _156
REMARK   68  A    between atoms: _156  and  _157
REMARK   69  A    between atoms: _163  and  _165
REMARK   70  A    between atoms: _165  and  _166
REMARK   71  A    between atoms: _165  and  _168
REMARK   72  A    between atoms: _168  and  _169
REMARK   73  A    between atoms: _172  and  _174
REMARK   74  A    between atoms: _174  and  _175
REMARK   75  A    between atoms: _174  and  _177
REMARK   76  A    between atoms: _180  and  _182
REMARK   77  A    between atoms: _182  and  _183
REMARK   78  A    between atoms: _182  and  _185
REMARK   79  A    between atoms: _185  and  _186
REMARK   80  A    between atoms: _189  and  _191
REMARK   81  A    between atoms: _191  and  _192
REMARK   82  A    between atoms: _191  and  _194
REMARK   83  A    between atoms: _194  and  _195
REMARK   84  A    between atoms: _199  and  _200
REMARK   85  A    between atoms: _205  and  _207
REMARK   86  A    between atoms: _207  and  _208
REMARK   87  A    between atoms: _211  and  _213
REMARK   88  A    between atoms: _213  and  _214
REMARK   89  A    between atoms: _213  and  _216
REMARK   90  A    between atoms: _216  and  _217
REMARK   91  A    between atoms: _222  and  _224
REMARK   92  A    between atoms: _224  and  _225
REMARK   93  A    between atoms: _224  and  _227
REMARK   94  A    between atoms: _227  and  _228
REMARK   95  A    between atoms: _231  and  _233
REMARK   96  A    between atoms: _233  and  _234
REMARK   97  A    between atoms: _233  and  _236
REMARK   98  A    between atoms: _236  and  _237
REMARK   99  A    between atoms: _240  and  _242
REMARK  100  A    between atoms: _242  and  _243
REMARK  101  A    between atoms: _245  and  _247
REMARK  102  A    between atoms: _247  and  _248
REMARK  103  A    between atoms: _247  and  _250
REMARK  104  A    between atoms: _250  and  _251
REMARK  105  A    between atoms: _251  and  _252
REMARK  106  A    between atoms: _252  and  _253
REMARK  107  A    between atoms: _262  and  _264
REMARK  108  A    between atoms: _264  and  _265
REMARK  109  A    between atoms: _264  and  _267
REMARK  110  A    between atoms: _267  and  _268
REMARK  111  A    between atoms: _273  and  _275
REMARK  112  A    between atoms: _275  and  _276
REMARK  113  A    between atoms: _275  and  _278
REMARK  114  A    between atoms: _278  and  _279
REMARK  115  A    between atoms: _279  and  _280
REMARK  116  A    between atoms: _280  and  _281
REMARK  117  A    between atoms: _290  and  _292
REMARK  118  A    between atoms: _292  and  _293
REMARK  119  A    between atoms: _292  and  _295
REMARK  120  A    between atoms: _295  and  _296
REMARK  121  A    between atoms: _299  and  _301
REMARK  122  A    between atoms: _301  and  _302
REMARK  123  A    between atoms: _301  and  _304
REMARK  124  A    between atoms: _304  and  _305
REMARK  125  A    between atoms: _308  and  _310
REMARK  126  A    between atoms: _310  and  _311
REMARK  127  A    between atoms: _310  and  _313
REMARK  128  A    between atoms: _313  and  _314
REMARK  129  A    between atoms: _317  and  _319
REMARK  130  A    between atoms: _319  and  _320
REMARK  131  A    between atoms: _322  and  _324
REMARK  132  A    between atoms: _324  and  _325
REMARK  133  A    between atoms: _328  and  _330
REMARK  134  A    between atoms: _330  and  _331
REMARK  135  A    between atoms: _330  and  _333
REMARK  136  A    between atoms: _333  and  _334
REMARK  137  A    between atoms: _337  and  _339
REMARK  138  A    between atoms: _339  and  _340
REMARK  139  A    between atoms: _339  and  _342
REMARK  140  A    between atoms: _342  and  _343
REMARK  141  A    between atoms: _346  and  _348
REMARK  142  A    between atoms: _348  and  _349
REMARK  143  A    between atoms: _348  and  _351
REMARK  144  A    between atoms: _351  and  _352
REMARK  145  A    between atoms: _355  and  _357
REMARK  146  A    between atoms: _357  and  _358
REMARK  147  A    between atoms: _357  and  _360
REMARK  148  A    between atoms: _364  and  _365
REMARK  149  A    between atoms: _370  and  _372
REMARK  150  A    between atoms: _372  and  _373
REMARK  151  A    between atoms: _372  and  _375
REMARK  152  A    between atoms: _375  and  _376
REMARK  153  A    between atoms: _376  and  _377
REMARK  154  A    between atoms: _377  and  _378
REMARK  155  A    between atoms: _378  and  _379
REMARK  156  A    between atoms: _383  and  _385
REMARK  157  A    between atoms: _385  and  _386
REMARK  158  A    between atoms: _385  and  _388
REMARK  159  A    between atoms: _388  and  _389
REMARK  160  A    between atoms: _389  and  _390
REMARK  161  A    between atoms: _392  and  _394
REMARK  162  A    between atoms: _394  and  _395
REMARK  163  A    between atoms: _394  and  _397
REMARK  164  A    between atoms: _397  and  _398
REMARK  165  A    between atoms: _401  and  _403
REMARK  166  A    between atoms: _403  and  _404
REMARK  167  A    between atoms: _406  and  _408
REMARK  168  A    between atoms: _408  and  _409
REMARK  169  A    between atoms: _411  and  _413
REMARK  170  A    between atoms: _413  and  _414
REMARK  171  A    between atoms: _413  and  _416
REMARK  172  A    between atoms: _416  and  _417
REMARK  173  A    between atoms: _420  and  _422
REMARK  174  A    between atoms: _422  and  _423
REMARK  175  A    between atoms: _425  and  _427
REMARK  176  A    between atoms: _427  and  _428
REMARK  177  A    between atoms: _430  and  _432
REMARK  178  A    between atoms: _432  and  _433
REMARK  179  A    between atoms: _432  and  _435
REMARK  180  A    between atoms: _435  and  _436
REMARK  181  A    between atoms: _442  and  _444
REMARK  182  A    between atoms: _444  and  _445
REMARK  183  A    between atoms: _444  and  _447
REMARK  184  A    between atoms: _447  and  _448
REMARK  185  A    between atoms: _451  and  _453
REMARK  186  A    between atoms: _453  and  _454
REMARK  187  A    between atoms: _453  and  _456
REMARK  188  A    between atoms: _459  and  _461
REMARK  189  A    between atoms: _461  and  _462
REMARK  190  A    between atoms: _461  and  _464
REMARK  191  A    between atoms: _464  and  _465
REMARK  192  A    between atoms: _465  and  _466
REMARK  193  A    between atoms: _471  and  _473
REMARK  194  A    between atoms: _473  and  _474
REMARK  195  A    between atoms: _473  and  _476
REMARK  196  A    between atoms: _476  and  _477
REMARK  197  A    between atoms: _481  and  _482
REMARK  198  A    between atoms: _487  and  _489
REMARK  199  A    between atoms: _489  and  _490
REMARK  200  A    between atoms: _489  and  _492
REMARK  201  A    between atoms: _492  and  _493
REMARK  202  A    between atoms: _497  and  _498
REMARK  203  A    between atoms: _503  and  _505
REMARK  204  A    between atoms: _505  and  _506
REMARK  205  A    between atoms: _509  and  _511
REMARK  206  A    between atoms: _511  and  _512
REMARK  207  A    between atoms: _511  and  _514
REMARK  208  A    between atoms: _514  and  _515
REMARK  209  A    between atoms: _520  and  _522
REMARK  210  A    between atoms: _522  and  _523
REMARK  211  A    between atoms: _522  and  _525
REMARK  212  A    between atoms: _525  and  _526
REMARK  213  A    between atoms: _529  and  _531
REMARK  214  A    between atoms: _531  and  _532
REMARK  215  A    between atoms: _531  and  _534
REMARK  216  A    between atoms: _534  and  _535
REMARK  217  A    between atoms: _538  and  _540
REMARK  218  A    between atoms: _540  and  _541
REMARK  219  A    between atoms: _543  and  _545
REMARK  220  A    between atoms: _545  and  _546
REMARK  221  A    between atoms: _545  and  _548
REMARK  222  A    between atoms: _548  and  _549
REMARK  223  A    between atoms: _549  and  _550
REMARK  224  A    between atoms: _550  and  _551
REMARK  225  A    between atoms: _560  and  _562
REMARK  226  A    between atoms: _562  and  _563
REMARK  227  A    between atoms: _562  and  _565
REMARK  228  A    between atoms: _565  and  _566
REMARK                            x       y       z     vdW  Elec       q    Type
REMARK                         _______ _______ _______ _____ _____    ______ ____
ROOT
ATOM      1  NE  ARG A   1      22.664  30.109  22.576  0.00  0.00    -0.265 N 
ATOM      2  CZ  ARG A   1      23.829  29.500  22.508  0.00  0.00    +0.342 C 
ATOM      3  NH2 ARG A   1      24.560  29.258  23.580  0.00  0.00    -0.292 N 
ATOM      4 HH21 ARG A   1      24.220  29.551  24.518  0.00  0.00    +0.255 HD
ATOM      5 HH22 ARG A   1      25.476  28.774  23.487  0.00  0.00    +0.255 HD
ATOM      6  NH1 ARG A   1      24.216  29.149  21.304  0.00  0.00    -0.292 N 
ATOM      7 HH11 ARG A   1      25.126  28.663  21.171  0.00  0.00    +0.255 HD
ATOM      8 HH12 ARG A   1      23.613  29.357  20.483  0.00  0.00    +0.255 HD
ATOM      9  HE  ARG A   1      22.161  30.265  21.679  0.00  0.00    +0.259 HD
ENDROOT
BRANCH   1  10
ATOM     10  CD  ARG A   1      22.019  30.580  23.778  0.00  0.00    +0.174 C 
BRANCH  10  11
ATOM     11  CG  ARG A   1      21.070  31.745  23.527  0.00  0.00    +0.045 C 
BRANCH  11  12
ATOM     12  CB  ARG A   1      20.246  31.998  24.768  0.00  0.00    +0.029 C 
BRANCH  12  13
ATOM     13  CA  ARG A   1      19.262  33.139  24.632  0.00  0.00    +0.133 C 
BRANCH  13  14
ATOM     14  N   ARG A   1      20.035  34.384  24.497  0.00  0.00    -0.239 NA
ATOM     15  H   ARG A   1      21.075  34.387  24.517  0.00  0.00    +0.142 HD
ENDBRANCH  13  14
BRANCH  13  16
ATOM     16  C   ARG A   1      18.361  33.166  25.850  0.00  0.00    +0.224 C 
ATOM     17  O   ARG A   1      18.820  33.624  26.909  0.00  0.00    -0.287 OA
ENDBRANCH  13  16
ENDBRANCH  12  13
ENDBRANCH  11  12
ENDBRANCH  10  11
ENDBRANCH   1  10
TORSDOF 6
REMARK  Name = ../refined-set-2016/2aoe/2aoe_pocket.pdb
REMARK  228 active torsions:
REMARK  status: ('A' for Active; 'I' for Inactive)
REMARK    1  A    between atoms: _1  and  _3
REMARK    2  A    between atoms: _3  and  _4
REMARK    3  A    between atoms: _3  and  _6
REMARK    4  A    between atoms: _6  and  _7
REMARK    5  A    between atoms: _7  and  _8
REMARK    6  A    between atoms: _8  and  _9
REMARK    7  A    between atoms: _18  and  _20
REMARK    8  A    between atoms: _20  and  _21
REMARK    9  A    between atoms: _20  and  _23
REMARK   10  A    between atoms: _23  and  _24
REMARK   11  A    between atoms: _27  and  _29
REMARK   12  A    between atoms: _29  and  _30
REMARK   13  A    between atoms: _29  and  _32
REMARK   14  A    between atoms: _32  and  _33
REMARK   15  A    between atoms: _36  and  _38
REMARK   16  A    between atoms: _38  and  _39
REMARK   17  A    between atoms: _38  and  _41
REMARK   18  A    between atoms: _41  and  _42
REMARK   19  A    between atoms: _45  and  _47
REMARK   20  A    between atoms: _47  and  _48
REMARK   21  A    between atoms: _50  and  _52
REMARK   22  A    between atoms: _52  and  _53
REMARK   23  A    between atoms: _56  and  _58
REMARK   24  A    between atoms: _58  and  _59
REMARK   25  A    between atoms: _58  and  _61
REMARK   26  A    between atoms: _61  and  _62
REMARK   27  A    between atoms: _65  and  _67
REMARK   28  A    between atoms: _67  and  _68
REMARK   29  A    between atoms: _67  and  _70
REMARK   30  A    between atoms: _70  and  _71
REMARK   31  A    between atoms: _74  and  _76
REMARK   32  A    between atoms: _76  and  _77
REMARK   33  A    between atoms: _76  and  _79
REMARK   34  A    between atoms: _79  and  _80
REMARK   35  A    between atoms: _83  and  _85
REMARK   36  A    between atoms: _85  and  _86
REMARK   37  A    between atoms: _85  and  _88
REMARK   38  A    between atoms: _91  and  _93
REMARK   39  A    between atoms: _93  and  _94
REMARK   40  A    between atoms: _93  and  _96
REMARK   41  A    between atoms: _97  and  _98
REMARK   42  A    between atoms: _98  and  _99
REMARK   43  A    between atoms: _99  and  _100
REMARK   44  A    between atoms: _104  and  _106
REMARK   45  A    between atoms: _106  and  _107
REMARK   46  A    between atoms: _106  and  _109
REMARK   47  A    between atoms: _109  and  _110
REMARK   48  A    between atoms: _110  and  _111
REMARK   49  A    between atoms: _113  and  _115
REMARK   50  A    between atoms: _115  and  _116
REMARK   51  A    between atoms: _115  and  _118
REMARK   52  A    between atoms: _118  and  _119
REMARK   53  A    between atoms: _122  and  _124
REMARK   54  A    between atoms: _124  and  _125
REMARK   55  A    between atoms: _127  and  _129
REMARK   56  A    between atoms: _129  and  _130
REMARK   57  A    between atoms: _132  and  _134
REMARK   58  A    between atoms: _134  and  _135
REMARK   59  A    between atoms: _134  and  _137
REMARK   60  A    between atoms: _137  and  _138
REMARK   61  A    between atoms: _141  and  _143
REMARK   62  A    between atoms: _143  and  _144
REMARK   63  A    between atoms: _146  and  _148
REMARK   64  A    between atoms: _148  and  _149
REMARK   65  A    between atoms: _151  and  _153
REMARK   66  A    between atoms: _153  and  _154
REMARK   67  A    between atoms: _153  and  _156
REMARK   68  A    between atoms: _156  and  _157
REMARK   69  A    between atoms: _163  and  _165
REMARK   70  A    between atoms: _165  and  _166
REMARK   71  A    between atoms: _165  and  _168
REMARK   72  A    between atoms: _168  and  _169
REMARK   73  A    between atoms: _172  and  _174
REMARK   74  A    between atoms: _174  and  _175
REMARK   75  A    between atoms: _174  and  _177
REMARK   76  A    between atoms: _180  and  _182
REMARK   77  A    between atoms: _182  and  _183
REMARK   78  A    between atoms: _182  and  _185
REMARK   79  A    between atoms: _185  and  _186
REMARK   80  A    between atoms: _189  and  _191
REMARK   81  A    between atoms: _191  and  _192
REMARK   82  A    between atoms: _191  and  _194
REMARK   83  A    between atoms: _194  and  _195
REMARK   84  A    between atoms: _199  and  _200
REMARK   85  A    between atoms: _205  and  _207
REMARK   86  A    between atoms: _207  and  _208
REMARK   87  A    between atoms: _211  and  _213
REMARK   88  A    between atoms: _213  and  _214
REMARK   89  A    between atoms: _213  and  _216
REMARK   90  A    between atoms: _216  and  _217
REMARK   91  A    between atoms: _222  and  _224
REMARK   92  A    between atoms: _224  and  _225
REMARK   93  A    between atoms: _224  and  _227
REMARK   94  A    between atoms: _227  and  _228
REMARK   95  A    between atoms: _231  and  _233
REMARK   96  A    between atoms: _233  and  _234
REMARK   97  A    between atoms: _233  and  _236
REMARK   98  A    between atoms: _236  and  _237
REMARK   99  A    between atoms: _240  and  _242
REMARK  100  A    between atoms: _242  and  _243
REMARK  101  A    between atoms: _245  and  _247
REMARK  102  A    between atoms: _247  and  _248
REMARK  103  A    between atoms: _247  and  _250
REMARK  104  A    between atoms: _250  and  _251
REMARK  105  A    between atoms: _251  and  _252
REMARK  106  A    between atoms: _252  and  _253
REMARK  107  A    between atoms: _262  and  _264
REMARK  108  A    between atoms: _264  and  _265
REMARK  109  A    between atoms: _264  and  _267
REMARK  110  A    between atoms: _267  and  _268
REMARK  111  A    between atoms: _273  and  _275
REMARK  112  A    between atoms: _275  and  _276
REMARK  113  A    between atoms: _275  and  _278
REMARK  114  A    between atoms: _278  and  _279
REMARK  115  A    between atoms: _279  and  _280
REMARK  116  A    between atoms: _280  and  _281
REMARK  117  A    between atoms: _290  and  _292
REMARK  118  A    between atoms: _292  and  _293
REMARK  119  A    between atoms: _292  and  _295
REMARK  120  A    between atoms: _295  and  _296
REMARK  121  A    between atoms: _299  and  _301
REMARK  122  A    between atoms: _301  and  _302
REMARK  123  A    between atoms: _301  and  _304
REMARK  124  A    between atoms: _304  and  _305
REMARK  125  A    between atoms: _308  and  _310
REMARK  126  A    between atoms: _310  and  _311
REMARK  127  A    between atoms: _310  and  _313
REMARK  128  A    between atoms: _313  and  _314
REMARK  129  A    between atoms: _317  and  _319
REMARK  130  A    between atoms: _319  and  _320
REMARK  131  A    between atoms: _322  and  _324
REMARK  132  A    between atoms: _324  and  _325
REMARK  133  A    between atoms: _328  and  _330
REMARK  134  A    between atoms: _330  and  _331
REMARK  135  A    between atoms: _330  and  _333
REMARK  136  A    between atoms: _333  and  _334
REMARK  137  A    between atoms: _337  and  _339
REMARK  138  A    between atoms: _339  and  _340
REMARK  139  A    between atoms: _339  and  _342
REMARK  140  A    between atoms: _342  and  _343
REMARK  141  A    between atoms: _346  and  _348
REMARK  142  A    between atoms: _348  and  _349
REMARK  143  A    between atoms: _348  and  _351
REMARK  144  A    between atoms: _351  and  _352
REMARK  145  A    between atoms: _355  and  _357
REMARK  146  A    between atoms: _357  and  _358
REMARK  147  A    between atoms: _357  and  _360
REMARK  148  A    between atoms: _364  and  _365
REMARK  149  A    between atoms: _370  and  _372
REMARK  150  A    between atoms: _372  and  _373
REMARK  151  A    between atoms: _372  and  _375
REMARK  152  A    between atoms: _375  and  _376
REMARK  153  A    between atoms: _376  and  _377
REMARK  154  A    between atoms: _377  and  _378
REMARK  155  A    between atoms: _378  and  _379
REMARK  156  A    between atoms: _383  and  _385
REMARK  157  A    between atoms: _385  and  _386
REMARK  158  A    between atoms: _385  and  _388
REMARK  159  A    between atoms: _388  and  _389
REMARK  160  A    between atoms: _389  and  _390
REMARK  161  A    between atoms: _392  and  _394
REMARK  162  A    between atoms: _394  and  _395
REMARK  163  A    between atoms: _394  and  _397
REMARK  164  A    between atoms: _397  and  _398
REMARK  165  A    between atoms: _401  and  _403
REMARK  166  A    between atoms: _403  and  _404
REMARK  167  A    between atoms: _406  and  _408
REMARK  168  A    between atoms: _408  and  _409
REMARK  169  A    between atoms: _411  and  _413
REMARK  170  A    between atoms: _413  and  _414
REMARK  171  A    between atoms: _413  and  _416
REMARK  172  A    between atoms: _416  and  _417
REMARK  173  A    between atoms: _420  and  _422
REMARK  174  A    between atoms: _422  and  _423
REMARK  175  A    between atoms: _425  and  _427
REMARK  176  A    between atoms: _427  and  _428
REMARK  177  A    between atoms: _430  and  _432
REMARK  178  A    between atoms: _432  and  _433
REMARK  179  A    between atoms: _432  and  _435
REMARK  180  A    between atoms: _435  and  _436
REMARK  181  A    between atoms: _442  and  _444
REMARK  182  A    between atoms: _444  and  _445
REMARK  183  A    between atoms: _444  and  _447
REMARK  184  A    between atoms: _447  and  _448
REMARK  185  A    between atoms: _451  and  _453
REMARK  186  A    between atoms: _453  and  _454
REMARK  187  A    between atoms: _453  and  _456
REMARK  188  A    between atoms: _459  and  _461
REMARK  189  A    between atoms: _461  and  _462
REMARK  190  A    between atoms: _461  and  _464
REMARK  191  A    between atoms: _464  and  _465
REMARK  192  A    between atoms: _465  and  _466
REMARK  193  A    between atoms: _471  and  _473
REMARK  194  A    between atoms: _473  and  _474
REMARK  195  A    between atoms: _473  and  _476
REMARK  196  A    between atoms: _476  and  _477
REMARK  197  A    between atoms: _481  and  _482
REMARK  198  A    between atoms: _487  and  _489
REMARK  199  A    between atoms: _489  and  _490
REMARK  200  A    between atoms: _489  and  _492
REMARK  201  A    between atoms: _492  and  _493
REMARK  202  A    between atoms: _497  and  _498
REMARK  203  A    between atoms: _503  and  _505
REMARK  204  A    between atoms: _505  and  _506
REMARK  205  A    between atoms: _509  and  _511
REMARK  206  A    between atoms: _511  and  _512
REMARK  207  A    between atoms: _511  and  _514
REMARK  208  A    between atoms: _514  and  _515
REMARK  209  A    between atoms: _520  and  _522
REMARK  210  A    between atoms: _522  and  _523
REMARK  211  A    between atoms: _522  and  _525
REMARK  212  A    between atoms: _525  and  _526
REMARK  213  A    between atoms: _529  and  _531
REMARK  214  A    between atoms: _531  and  _532
REMARK  215  A    between atoms: _531  and  _534
REMARK  216  A    between atoms: _534  and  _535
REMARK  217  A    between atoms: _538  and  _540
REMARK  218  A    between atoms: _540  and  _541
REMARK  219  A    between atoms: _543  and  _545
REMARK  220  A    between atoms: _545  and  _546
REMARK  221  A    between atoms: _545  and  _548
REMARK  222  A    between atoms: _548  and  _549
REMARK  223  A    between atoms: _549  and  _550
REMARK  224  A    between atoms: _550  and  _551
REMARK  225  A    between atoms: _560  and  _562
REMARK  226  A    between atoms: _562  and  _563
REMARK  227  A    between atoms: _562  and  _565
REMARK  228  A    between atoms: _565  and  _566
REMARK                            x       y       z     vdW  Elec       q    Type
REMARK                         _______ _______ _______ _____ _____    ______ ____
ROOT
ATOM      1  CA  LEU A   1      16.467  27.215  27.230  0.00  0.00    +0.133 C 
ENDROOT
BRANCH   1   2
ATOM      2  N   LEU A   1      16.932  26.243  28.201  0.00  0.00    -0.239 NA
ATOM      3  H   LEU A   1      17.129  25.269  27.894  0.00  0.00    +0.142 HD
ENDBRANCH   1   2
BRANCH   1   4
ATOM      4  C   LEU A   1      14.981  27.127  26.985  0.00  0.00    +0.224 C 
ATOM      5  O   LEU A   1      14.504  26.015  26.718  0.00  0.00    -0.287 OA
ENDBRANCH   1   4
BRANCH   1   6
ATOM      6  CB  LEU A   1      17.212  26.841  25.962  0.00  0.00    +0.025 C 
BRANCH   6   7
ATOM      7  CG  LEU A   1      17.156  27.686  24.749  0.00  0.00    +0.002 C 
ATOM      8  CD2 LEU A   1      17.791  29.036  25.032  0.00  0.00    +0.000 C 
ATOM      9  CD1 LEU A   1      17.893  26.975  23.603  0.00  0.00    +0.000 C 
ENDBRANCH   6   7
ENDBRANCH   1   6
TORSDOF 4
REMARK  Name = ../refined-set-2016/2aoe/2aoe_pocket.pdb
REMARK  228 active torsions:
REMARK  status: ('A' for Active; 'I' for Inactive)
REMARK    1  A    between atoms: _1  and  _3
REMARK    2  A    between atoms: _3  and  _4
REMARK    3  A    between atoms: _3  and  _6
REMARK    4  A    between atoms: _6  and  _7
REMARK    5  A    between atoms: _7  and  _8
REMARK    6  A    between atoms: _8  and  _9
REMARK    7  A    between atoms: _18  and  _20
REMARK    8  A    between atoms: _20  and  _21
REMARK    9  A    between atoms: _20  and  _23
REMARK   10  A    between atoms: _23  and  _24
REMARK   11  A    between atoms: _27  and  _29
REMARK   12  A    between atoms: _29  and  _30
REMARK   13  A    between atoms: _29  and  _32
REMARK   14  A    between atoms: _32  and  _33
REMARK   15  A    between atoms: _36  and  _38
REMARK   16  A    between atoms: _38  and  _39
REMARK   17  A    between atoms: _38  and  _41
REMARK   18  A    between atoms: _41  and  _42
REMARK   19  A    between atoms: _45  and  _47
REMARK   20  A    between atoms: _47  and  _48
REMARK   21  A    between atoms: _50  and  _52
REMARK   22  A    between atoms: _52  and  _53
REMARK   23  A    between atoms: _56  and  _58
REMARK   24  A    between atoms: _58  and  _59
REMARK   25  A    between atoms: _58  and  _61
REMARK   26  A    between atoms: _61  and  _62
REMARK   27  A    between atoms: _65  and  _67
REMARK   28  A    between atoms: _67  and  _68
REMARK   29  A    between atoms: _67  and  _70
REMARK   30  A    between atoms: _70  and  _71
REMARK   31  A    between atoms: _74  and  _76
REMARK   32  A    between atoms: _76  and  _77
REMARK   33  A    between atoms: _76  and  _79
REMARK   34  A    between atoms: _79  and  _80
REMARK   35  A    between atoms: _83  and  _85
REMARK   36  A    between atoms: _85  and  _86
REMARK   37  A    between atoms: _85  and  _88
REMARK   38  A    between atoms: _91  and  _93
REMARK   39  A    between atoms: _93  and  _94
REMARK   40  A    between atoms: _93  and  _96
REMARK   41  A    between atoms: _97  and  _98
REMARK   42  A    between atoms: _98  and  _99
REMARK   43  A    between atoms: _99  and  _100
REMARK   44  A    between atoms: _104  and  _106
REMARK   45  A    between atoms: _106  and  _107
REMARK   46  A    between atoms: _106  and  _109
REMARK   47  A    between atoms: _109  and  _110
REMARK   48  A    between atoms: _110  and  _111
REMARK   49  A    between atoms: _113  and  _115
REMARK   50  A    between atoms: _115  and  _116
REMARK   51  A    between atoms: _115  and  _118
REMARK   52  A    between atoms: _118  and  _119
REMARK   53  A    between atoms: _122  and  _124
REMARK   54  A    between atoms: _124  and  _125
REMARK   55  A    between atoms: _127  and  _129
REMARK   56  A    between atoms: _129  and  _130
REMARK   57  A    between atoms: _132  and  _134
REMARK   58  A    between atoms: _134  and  _135
REMARK   59  A    between atoms: _134  and  _137
REMARK   60  A    between atoms: _137  and  _138
REMARK   61  A    between atoms: _141  and  _143
REMARK   62  A    between atoms: _143  and  _144
REMARK   63  A    between atoms: _146  and  _148
REMARK   64  A    between atoms: _148  and  _149
REMARK   65  A    between atoms: _151  and  _153
REMARK   66  A    between atoms: _153  and  _154
REMARK   67  A    between atoms: _153  and  _156
REMARK   68  A    between atoms: _156  and  _157
REMARK   69  A    between atoms: _163  and  _165
REMARK   70  A    between atoms: _165  and  _166
REMARK   71  A    between atoms: _165  and  _168
REMARK   72  A    between atoms: _168  and  _169
REMARK   73  A    between atoms: _172  and  _174
REMARK   74  A    between atoms: _174  and  _175
REMARK   75  A    between atoms: _174  and  _177
REMARK   76  A    between atoms: _180  and  _182
REMARK   77  A    between atoms: _182  and  _183
REMARK   78  A    between atoms: _182  and  _185
REMARK   79  A    between atoms: _185  and  _186
REMARK   80  A    between atoms: _189  and  _191
REMARK   81  A    between atoms: _191  and  _192
REMARK   82  A    between atoms: _191  and  _194
REMARK   83  A    between atoms: _194  and  _195
REMARK   84  A    between atoms: _199  and  _200
REMARK   85  A    between atoms: _205  and  _207
REMARK   86  A    between atoms: _207  and  _208
REMARK   87  A    between atoms: _211  and  _213
REMARK   88  A    between atoms: _213  and  _214
REMARK   89  A    between atoms: _213  and  _216
REMARK   90  A    between atoms: _216  and  _217
REMARK   91  A    between atoms: _222  and  _224
REMARK   92  A    between atoms: _224  and  _225
REMARK   93  A    between atoms: _224  and  _227
REMARK   94  A    between atoms: _227  and  _228
REMARK   95  A    between atoms: _231  and  _233
REMARK   96  A    between atoms: _233  and  _234
REMARK   97  A    between atoms: _233  and  _236
REMARK   98  A    between atoms: _236  and  _237
REMARK   99  A    between atoms: _240  and  _242
REMARK  100  A    between atoms: _242  and  _243
REMARK  101  A    between atoms: _245  and  _247
REMARK  102  A    between atoms: _247  and  _248
REMARK  103  A    between atoms: _247  and  _250
REMARK  104  A    between atoms: _250  and  _251
REMARK  105  A    between atoms: _251  and  _252
REMARK  106  A    between atoms: _252  and  _253
REMARK  107  A    between atoms: _262  and  _264
REMARK  108  A    between atoms: _264  and  _265
REMARK  109  A    between atoms: _264  and  _267
REMARK  110  A    between atoms: _267  and  _268
REMARK  111  A    between atoms: _273  and  _275
REMARK  112  A    between atoms: _275  and  _276
REMARK  113  A    between atoms: _275  and  _278
REMARK  114  A    between atoms: _278  and  _279
REMARK  115  A    between atoms: _279  and  _280
REMARK  116  A    between atoms: _280  and  _281
REMARK  117  A    between atoms: _290  and  _292
REMARK  118  A    between atoms: _292  and  _293
REMARK  119  A    between atoms: _292  and  _295
REMARK  120  A    between atoms: _295  and  _296
REMARK  121  A    between atoms: _299  and  _301
REMARK  122  A    between atoms: _301  and  _302
REMARK  123  A    between atoms: _301  and  _304
REMARK  124  A    between atoms: _304  and  _305
REMARK  125  A    between atoms: _308  and  _310
REMARK  126  A    between atoms: _310  and  _311
REMARK  127  A    between atoms: _310  and  _313
REMARK  128  A    between atoms: _313  and  _314
REMARK  129  A    between atoms: _317  and  _319
REMARK  130  A    between atoms: _319  and  _320
REMARK  131  A    between atoms: _322  and  _324
REMARK  132  A    between atoms: _324  and  _325
REMARK  133  A    between atoms: _328  and  _330
REMARK  134  A    between atoms: _330  and  _331
REMARK  135  A    between atoms: _330  and  _333
REMARK  136  A    between atoms: _333  and  _334
REMARK  137  A    between atoms: _337  and  _339
REMARK  138  A    between atoms: _339  and  _340
REMARK  139  A    between atoms: _339  and  _342
REMARK  140  A    between atoms: _342  and  _343
REMARK  141  A    between atoms: _346  and  _348
REMARK  142  A    between atoms: _348  and  _349
REMARK  143  A    between atoms: _348  and  _351
REMARK  144  A    between atoms: _351  and  _352
REMARK  145  A    between atoms: _355  and  _357
REMARK  146  A    between atoms: _357  and  _358
REMARK  147  A    between atoms: _357  and  _360
REMARK  148  A    between atoms: _364  and  _365
REMARK  149  A    between atoms: _370  and  _372
REMARK  150  A    between atoms: _372  and  _373
REMARK  151  A    between atoms: _372  and  _375
REMARK  152  A    between atoms: _375  and  _376
REMARK  153  A    between atoms: _376  and  _377
REMARK  154  A    between atoms: _377  and  _378
REMARK  155  A    between atoms: _378  and  _379
REMARK  156  A    between atoms: _383  and  _385
REMARK  157  A    between atoms: _385  and  _386
REMARK  158  A    between atoms: _385  and  _388
REMARK  159  A    between atoms: _388  and  _389
REMARK  160  A    between atoms: _389  and  _390
REMARK  161  A    between atoms: _392  and  _394
REMARK  162  A    between atoms: _394  and  _395
REMARK  163  A    between atoms: _394  and  _397
REMARK  164  A    between atoms: _397  and  _398
REMARK  165  A    between atoms: _401  and  _403
REMARK  166  A    between atoms: _403  and  _404
REMARK  167  A    between atoms: _406  and  _408
REMARK  168  A    between atoms: _408  and  _409
REMARK  169  A    between atoms: _411  and  _413
REMARK  170  A    between atoms: _413  and  _414
REMARK  171  A    between atoms: _413  and  _416
REMARK  172  A    between atoms: _416  and  _417
REMARK  173  A    between atoms: _420  and  _422
REMARK  174  A    between atoms: _422  and  _423
REMARK  175  A    between atoms: _425  and  _427
REMARK  176  A    between atoms: _427  and  _428
REMARK  177  A    between atoms: _430  and  _432
REMARK  178  A    between atoms: _432  and  _433
REMARK  179  A    between atoms: _432  and  _435
REMARK  180  A    between atoms: _435  and  _436
REMARK  181  A    between atoms: _442  and  _444
REMARK  182  A    between atoms: _444  and  _445
REMARK  183  A    between atoms: _444  and  _447
REMARK  184  A    between atoms: _447  and  _448
REMARK  185  A    between atoms: _451  and  _453
REMARK  186  A    between atoms: _453  and  _454
REMARK  187  A    between atoms: _453  and  _456
REMARK  188  A    between atoms: _459  and  _461
REMARK  189  A    between atoms: _461  and  _462
REMARK  190  A    between atoms: _461  and  _464
REMARK  191  A    between atoms: _464  and  _465
REMARK  192  A    between atoms: _465  and  _466
REMARK  193  A    between atoms: _471  and  _473
REMARK  194  A    between atoms: _473  and  _474
REMARK  195  A    between atoms: _473  and  _476
REMARK  196  A    between atoms: _476  and  _477
REMARK  197  A    between atoms: _481  and  _482
REMARK  198  A    between atoms: _487  and  _489
REMARK  199  A    between atoms: _489  and  _490
REMARK  200  A    between atoms: _489  and  _492
REMARK  201  A    between atoms: _492  and  _493
REMARK  202  A    between atoms: _497  and  _498
REMARK  203  A    between atoms: _503  and  _505
REMARK  204  A    between atoms: _505  and  _506
REMARK  205  A    between atoms: _509  and  _511
REMARK  206  A    between atoms: _511  and  _512
REMARK  207  A    between atoms: _511  and  _514
REMARK  208  A    between atoms: _514  and  _515
REMARK  209  A    between atoms: _520  and  _522
REMARK  210  A    between atoms: _522  and  _523
REMARK  211  A    between atoms: _522  and  _525
REMARK  212  A    between atoms: _525  and  _526
REMARK  213  A    between atoms: _529  and  _531
REMARK  214  A    between atoms: _531  and  _532
REMARK  215  A    between atoms: _531  and  _534
REMARK  216  A    between atoms: _534  and  _535
REMARK  217  A    between atoms: _538  and  _540
REMARK  218  A    between atoms: _540  and  _541
REMARK  219  A    between atoms: _543  and  _545
REMARK  220  A    between atoms: _545  and  _546
REMARK  221  A    between atoms: _545  and  _548
REMARK  222  A    between atoms: _548  and  _549
REMARK  223  A    between atoms: _549  and  _550
REMARK  224  A    between atoms: _550  and  _551
REMARK  225  A    between atoms: _560  and  _562
REMARK  226  A    between atoms: _562  and  _563
REMARK  227  A    between atoms: _562  and  _565
REMARK  228  A    between atoms: _565  and  _566
REMARK                            x       y       z     vdW  Elec       q    Type
REMARK                         _______ _______ _______ _____ _____    ______ ____
ROOT
ATOM      1  CA  ASP A   5       7.551  20.025  20.900  0.00  0.00    +0.160 C 
ENDROOT
BRANCH   1   2
ATOM      2  C   ASP A   5       7.619  19.550  22.355  0.00  0.00    +0.241 C 
ATOM      3  O   ASP A   5       6.653  19.587  23.132  0.00  0.00    -0.273 OA
ATOM      4  N   ASP A   6       8.796  19.050  22.692  0.00  0.00    -0.297 N 
ATOM      5  H   ASP A   6       9.578  19.193  22.021  0.00  0.00    +0.150 HD
BRANCH   4   6
ATOM      6  CA  ASP A   6       9.094  18.334  23.887  0.00  0.00    +0.160 C 
BRANCH   6   7
ATOM      7  C   ASP A   6      10.234  18.944  24.686  0.00  0.00    +0.241 C 
ATOM      8  N   THR A   7      10.317  18.560  25.935  0.00  0.00    -0.295 N 
ATOM      9  H   THR A   7       9.569  17.943  26.312  0.00  0.00    +0.150 HD
ATOM     10  O   ASP A   6      10.997  19.702  24.125  0.00  0.00    -0.273 OA
BRANCH   8  11
ATOM     11  CA  THR A   7      11.413  18.955  26.834  0.00  0.00    +0.176 C 
BRANCH  11  12
ATOM     12  C   THR A   7      12.484  17.904  26.847  0.00  0.00    +0.243 C 
ATOM     13  O   THR A   7      12.170  16.722  27.040  0.00  0.00    -0.273 OA
ATOM     14  N   VAL A   8      13.723  18.306  26.627  0.00  0.00    -0.298 N 
ATOM     15  H   VAL A   8      13.901  19.326  26.531  0.00  0.00    +0.150 HD
BRANCH  14  16
ATOM     16  CA  VAL A   8      14.850  17.396  26.512  0.00  0.00    +0.137 C 
BRANCH  16  17
ATOM     17  CB  VAL A   8      15.360  17.223  25.069  0.00  0.00    +0.026 C 
ATOM     18  CG2 VAL A   8      16.299  16.026  24.998  0.00  0.00    +0.002 C 
ATOM     19  CG1 VAL A   8      14.218  17.075  24.073  0.00  0.00    +0.002 C 
ENDBRANCH  16  17
BRANCH  16  20
ATOM     20  C   VAL A   8      15.980  17.913  27.403  0.00  0.00    +0.227 C 
ATOM     21  O   VAL A   8      16.360  19.060  27.353  0.00  0.00    -0.286 OA
ENDBRANCH  16  20
ENDBRANCH  14  16
ENDBRANCH  11  12
BRANCH  11  22
ATOM     22  CB  THR A   7      10.795  19.186  28.233  0.00  0.00    +0.137 C 
ATOM     23  CG2 THR A   7      11.865  19.440  29.269  0.00  0.00    +0.034 C 
BRANCH  22  24
ATOM     24  OG1 THR A   7       9.906  20.329  28.130  0.00  0.00    -0.382 OA
ATOM     25  HG1 THR A   7       9.198  20.136  27.465  0.00  0.00    +0.210 HD
ENDBRANCH  22  24
ENDBRANCH  11  22
ENDBRANCH   8  11
ENDBRANCH   6   7
BRANCH   6  26
ATOM     26  CB  ASP A   6       9.556  16.914  23.531  0.00  0.00    +0.143 C 
BRANCH  26  27
ATOM     27  CG  ASP A   6       8.641  16.236  22.523  0.00  0.00    +0.367 C 
ATOM     28  OD2 ASP A   6       7.441  16.073  22.854  0.00  0.00    -0.246 OA
ATOM     29  OD1 ASP A   6       9.070  15.823  21.395  0.00  0.00    -0.246 OA
ENDBRANCH  26  27
ENDBRANCH   6  26
ENDBRANCH   4   6
ENDBRANCH   1   2
BRANCH   1  32
ATOM     30  C   ALA A   4       9.186  21.734  20.966  0.00  0.00    +0.241 C 
ATOM     31  O   ALA A   4       8.545  22.362  21.806  0.00  0.00    -0.273 OA
ATOM     32  N   ASP A   5       8.772  20.606  20.403  0.00  0.00    -0.297 N 
ATOM     33  H   ASP A   5       9.308  20.159  19.633  0.00  0.00    +0.150 HD
BRANCH  30  34
ATOM     34  CA  ALA A   4      10.558  22.236  20.524  0.00  0.00    +0.149 C 
ATOM     35  CB  ALA A   4      11.543  22.140  21.686  0.00  0.00    +0.031 C 
BRANCH  34  37
ATOM     36  C   GLY A   3      10.616  23.939  18.757  0.00  0.00    +0.243 C 
ATOM     37  N   ALA A   4      10.462  23.596  20.035  0.00  0.00    -0.297 N 
ATOM     38  H   ALA A   4      10.261  24.350  20.723  0.00  0.00    +0.150 HD
ATOM     39  O   GLY A   3      10.872  23.094  17.905  0.00  0.00    -0.273 OA
BRANCH  36  40
ATOM     40  CA  GLY A   3      10.470  25.405  18.397  0.00  0.00    +0.176 C 
BRANCH  40  43
ATOM     41  C   THR A   2       9.103  26.548  20.064  0.00  0.00    +0.243 C 
ATOM     42  O   THR A   2       8.059  26.094  19.587  0.00  0.00    -0.273 OA
ATOM     43  N   GLY A   3      10.291  26.280  19.538  0.00  0.00    -0.295 N 
ATOM     44  H   GLY A   3      11.133  26.718  19.964  0.00  0.00    +0.150 HD
BRANCH  41  45
ATOM     45  CA  THR A   2       9.101  27.443  21.289  0.00  0.00    +0.176 C 
BRANCH  45  48
ATOM     46  C   ASP A   1      10.937  26.525  22.557  0.00  0.00    +0.239 C 
ATOM     47  O   ASP A   1      10.381  25.416  22.593  0.00  0.00    -0.274 OA
ATOM     48  N   THR A   2      10.386  27.592  21.965  0.00  0.00    -0.295 N 
ATOM     49  H   THR A   2      10.867  28.514  21.987  0.00  0.00    +0.150 HD
BRANCH  46  50
ATOM     50  CA  ASP A   1      12.266  26.752  23.225  0.00  0.00    +0.156 C 
BRANCH  50  51
ATOM     51  N   ASP A   1      12.149  27.023  24.652  0.00  0.00    -0.238 NA
ATOM     52  H   ASP A   1      11.628  26.358  25.259  0.00  0.00    +0.142 HD
ENDBRANCH  50  51
BRANCH  50  53
ATOM     53  CB  ASP A   1      13.124  25.503  23.011  0.00  0.00    +0.140 C 
BRANCH  53  54
ATOM     54  CG  ASP A   1      13.548  25.285  21.562  0.00  0.00    +0.367 C 
ATOM     55  OD2 ASP A   1      14.418  24.412  21.323  0.00  0.00    -0.246 OA
ATOM     56  OD1 ASP A   1      12.969  25.994  20.695  0.00  0.00    -0.246 OA
ENDBRANCH  53  54
ENDBRANCH  50  53
ENDBRANCH  46  50
ENDBRANCH  45  48
BRANCH  45  57
ATOM     57  CB  THR A   2       8.559  28.846  20.862  0.00  0.00    +0.137 C 
ATOM     58  CG2 THR A   2       8.303  29.703  22.085  0.00  0.00    +0.034 C 
BRANCH  57  59
ATOM     59  OG1 THR A   2       9.498  29.477  19.986  0.00  0.00    -0.382 OA
ATOM     60  HG1 THR A   2       9.627  28.915  19.181  0.00  0.00    +0.210 HD
ENDBRANCH  57  59
ENDBRANCH  45  57
ENDBRANCH  41  45
ENDBRANCH  40  43
ENDBRANCH  36  40
ENDBRANCH  34  37
ENDBRANCH  30  34
ENDBRANCH   1  32
BRANCH   1  61
ATOM     61  CB  ASP A   5       7.148  18.833  20.049  0.00  0.00    +0.143 C 
BRANCH  61  62
ATOM     62  CG  ASP A   5       6.816  19.064  18.589  0.00  0.00    +0.367 C 
ATOM     63  OD2 ASP A   5       6.540  20.222  18.172  0.00  0.00    -0.246 OA
ATOM     64  OD1 ASP A   5       6.837  18.063  17.832  0.00  0.00    -0.246 OA
ENDBRANCH  61  62
ENDBRANCH   1  61
TORSDOF 27
REMARK  Name = ../refined-set-2016/2aoe/2aoe_pocket.pdb
REMARK  228 active torsions:
REMARK  status: ('A' for Active; 'I' for Inactive)
REMARK    1  A    between atoms: _1  and  _3
REMARK    2  A    between atoms: _3  and  _4
REMARK    3  A    between atoms: _3  and  _6
REMARK    4  A    between atoms: _6  and  _7
REMARK    5  A    between atoms: _7  and  _8
REMARK    6  A    between atoms: _8  and  _9
REMARK    7  A    between atoms: _18  and  _20
REMARK    8  A    between atoms: _20  and  _21
REMARK    9  A    between atoms: _20  and  _23
REMARK   10  A    between atoms: _23  and  _24
REMARK   11  A    between atoms: _27  and  _29
REMARK   12  A    between atoms: _29  and  _30
REMARK   13  A    between atoms: _29  and  _32
REMARK   14  A    between atoms: _32  and  _33
REMARK   15  A    between atoms: _36  and  _38
REMARK   16  A    between atoms: _38  and  _39
REMARK   17  A    between atoms: _38  and  _41
REMARK   18  A    between atoms: _41  and  _42
REMARK   19  A    between atoms: _45  and  _47
REMARK   20  A    between atoms: _47  and  _48
REMARK   21  A    between atoms: _50  and  _52
REMARK   22  A    between atoms: _52  and  _53
REMARK   23  A    between atoms: _56  and  _58
REMARK   24  A    between atoms: _58  and  _59
REMARK   25  A    between atoms: _58  and  _61
REMARK   26  A    between atoms: _61  and  _62
REMARK   27  A    between atoms: _65  and  _67
REMARK   28  A    between atoms: _67  and  _68
REMARK   29  A    between atoms: _67  and  _70
REMARK   30  A    between atoms: _70  and  _71
REMARK   31  A    between atoms: _74  and  _76
REMARK   32  A    between atoms: _76  and  _77
REMARK   33  A    between atoms: _76  and  _79
REMARK   34  A    between atoms: _79  and  _80
REMARK   35  A    between atoms: _83  and  _85
REMARK   36  A    between atoms: _85  and  _86
REMARK   37  A    between atoms: _85  and  _88
REMARK   38  A    between atoms: _91  and  _93
REMARK   39  A    between atoms: _93  and  _94
REMARK   40  A    between atoms: _93  and  _96
REMARK   41  A    between atoms: _97  and  _98
REMARK   42  A    between atoms: _98  and  _99
REMARK   43  A    between atoms: _99  and  _100
REMARK   44  A    between atoms: _104  and  _106
REMARK   45  A    between atoms: _106  and  _107
REMARK   46  A    between atoms: _106  and  _109
REMARK   47  A    between atoms: _109  and  _110
REMARK   48  A    between atoms: _110  and  _111
REMARK   49  A    between atoms: _113  and  _115
REMARK   50  A    between atoms: _115  and  _116
REMARK   51  A    between atoms: _115  and  _118
REMARK   52  A    between atoms: _118  and  _119
REMARK   53  A    between atoms: _122  and  _124
REMARK   54  A    between atoms: _124  and  _125
REMARK   55  A    between atoms: _127  and  _129
REMARK   56  A    between atoms: _129  and  _130
REMARK   57  A    between atoms: _132  and  _134
REMARK   58  A    between atoms: _134  and  _135
REMARK   59  A    between atoms: _134  and  _137
REMARK   60  A    between atoms: _137  and  _138
REMARK   61  A    between atoms: _141  and  _143
REMARK   62  A    between atoms: _143  and  _144
REMARK   63  A    between atoms: _146  and  _148
REMARK   64  A    between atoms: _148  and  _149
REMARK   65  A    between atoms: _151  and  _153
REMARK   66  A    between atoms: _153  and  _154
REMARK   67  A    between atoms: _153  and  _156
REMARK   68  A    between atoms: _156  and  _157
REMARK   69  A    between atoms: _163  and  _165
REMARK   70  A    between atoms: _165  and  _166
REMARK   71  A    between atoms: _165  and  _168
REMARK   72  A    between atoms: _168  and  _169
REMARK   73  A    between atoms: _172  and  _174
REMARK   74  A    between atoms: _174  and  _175
REMARK   75  A    between atoms: _174  and  _177
REMARK   76  A    between atoms: _180  and  _182
REMARK   77  A    between atoms: _182  and  _183
REMARK   78  A    between atoms: _182  and  _185
REMARK   79  A    between atoms: _185  and  _186
REMARK   80  A    between atoms: _189  and  _191
REMARK   81  A    between atoms: _191  and  _192
REMARK   82  A    between atoms: _191  and  _194
REMARK   83  A    between atoms: _194  and  _195
REMARK   84  A    between atoms: _199  and  _200
REMARK   85  A    between atoms: _205  and  _207
REMARK   86  A    between atoms: _207  and  _208
REMARK   87  A    between atoms: _211  and  _213
REMARK   88  A    between atoms: _213  and  _214
REMARK   89  A    between atoms: _213  and  _216
REMARK   90  A    between atoms: _216  and  _217
REMARK   91  A    between atoms: _222  and  _224
REMARK   92  A    between atoms: _224  and  _225
REMARK   93  A    between atoms: _224  and  _227
REMARK   94  A    between atoms: _227  and  _228
REMARK   95  A    between atoms: _231  and  _233
REMARK   96  A    between atoms: _233  and  _234
REMARK   97  A    between atoms: _233  and  _236
REMARK   98  A    between atoms: _236  and  _237
REMARK   99  A    between atoms: _240  and  _242
REMARK  100  A    between atoms: _242  and  _243
REMARK  101  A    between atoms: _245  and  _247
REMARK  102  A    between atoms: _247  and  _248
REMARK  103  A    between atoms: _247  and  _250
REMARK  104  A    between atoms: _250  and  _251
REMARK  105  A    between atoms: _251  and  _252
REMARK  106  A    between atoms: _252  and  _253
REMARK  107  A    between atoms: _262  and  _264
REMARK  108  A    between atoms: _264  and  _265
REMARK  109  A    between atoms: _264  and  _267
REMARK  110  A    between atoms: _267  and  _268
REMARK  111  A    between atoms: _273  and  _275
REMARK  112  A    between atoms: _275  and  _276
REMARK  113  A    between atoms: _275  and  _278
REMARK  114  A    between atoms: _278  and  _279
REMARK  115  A    between atoms: _279  and  _280
REMARK  116  A    between atoms: _280  and  _281
REMARK  117  A    between atoms: _290  and  _292
REMARK  118  A    between atoms: _292  and  _293
REMARK  119  A    between atoms: _292  and  _295
REMARK  120  A    between atoms: _295  and  _296
REMARK  121  A    between atoms: _299  and  _301
REMARK  122  A    between atoms: _301  and  _302
REMARK  123  A    between atoms: _301  and  _304
REMARK  124  A    between atoms: _304  and  _305
REMARK  125  A    between atoms: _308  and  _310
REMARK  126  A    between atoms: _310  and  _311
REMARK  127  A    between atoms: _310  and  _313
REMARK  128  A    between atoms: _313  and  _314
REMARK  129  A    between atoms: _317  and  _319
REMARK  130  A    between atoms: _319  and  _320
REMARK  131  A    between atoms: _322  and  _324
REMARK  132  A    between atoms: _324  and  _325
REMARK  133  A    between atoms: _328  and  _330
REMARK  134  A    between atoms: _330  and  _331
REMARK  135  A    between atoms: _330  and  _333
REMARK  136  A    between atoms: _333  and  _334
REMARK  137  A    between atoms: _337  and  _339
REMARK  138  A    between atoms: _339  and  _340
REMARK  139  A    between atoms: _339  and  _342
REMARK  140  A    between atoms: _342  and  _343
REMARK  141  A    between atoms: _346  and  _348
REMARK  142  A    between atoms: _348  and  _349
REMARK  143  A    between atoms: _348  and  _351
REMARK  144  A    between atoms: _351  and  _352
REMARK  145  A    between atoms: _355  and  _357
REMARK  146  A    between atoms: _357  and  _358
REMARK  147  A    between atoms: _357  and  _360
REMARK  148  A    between atoms: _364  and  _365
REMARK  149  A    between atoms: _370  and  _372
REMARK  150  A    between atoms: _372  and  _373
REMARK  151  A    between atoms: _372  and  _375
REMARK  152  A    between atoms: _375  and  _376
REMARK  153  A    between atoms: _376  and  _377
REMARK  154  A    between atoms: _377  and  _378
REMARK  155  A    between atoms: _378  and  _379
REMARK  156  A    between atoms: _383  and  _385
REMARK  157  A    between atoms: _385  and  _386
REMARK  158  A    between atoms: _385  and  _388
REMARK  159  A    between atoms: _388  and  _389
REMARK  160  A    between atoms: _389  and  _390
REMARK  161  A    between atoms: _392  and  _394
REMARK  162  A    between atoms: _394  and  _395
REMARK  163  A    between atoms: _394  and  _397
REMARK  164  A    between atoms: _397  and  _398
REMARK  165  A    between atoms: _401  and  _403
REMARK  166  A    between atoms: _403  and  _404
REMARK  167  A    between atoms: _406  and  _408
REMARK  168  A    between atoms: _408  and  _409
REMARK  169  A    between atoms: _411  and  _413
REMARK  170  A    between atoms: _413  and  _414
REMARK  171  A    between atoms: _413  and  _416
REMARK  172  A    between atoms: _416  and  _417
REMARK  173  A    between atoms: _420  and  _422
REMARK  174  A    between atoms: _422  and  _423
REMARK  175  A    between atoms: _425  and  _427
REMARK  176  A    between atoms: _427  and  _428
REMARK  177  A    between atoms: _430  and  _432
REMARK  178  A    between atoms: _432  and  _433
REMARK  179  A    between atoms: _432  and  _435
REMARK  180  A    between atoms: _435  and  _436
REMARK  181  A    between atoms: _442  and  _444
REMARK  182  A    between atoms: _444  and  _445
REMARK  183  A    between atoms: _444  and  _447
REMARK  184  A    between atoms: _447  and  _448
REMARK  185  A    between atoms: _451  and  _453
REMARK  186  A    between atoms: _453  and  _454
REMARK  187  A    between atoms: _453  and  _456
REMARK  188  A    between atoms: _459  and  _461
REMARK  189  A    between atoms: _461  and  _462
REMARK  190  A    between atoms: _461  and  _464
REMARK  191  A    between atoms: _464  and  _465
REMARK  192  A    between atoms: _465  and  _466
REMARK  193  A    between atoms: _471  and  _473
REMARK  194  A    between atoms: _473  and  _474
REMARK  195  A    between atoms: _473  and  _476
REMARK  196  A    between atoms: _476  and  _477
REMARK  197  A    between atoms: _481  and  _482
REMARK  198  A    between atoms: _487  and  _489
REMARK  199  A    between atoms: _489  and  _490
REMARK  200  A    between atoms: _489  and  _492
REMARK  201  A    between atoms: _492  and  _493
REMARK  202  A    between atoms: _497  and  _498
REMARK  203  A    between atoms: _503  and  _505
REMARK  204  A    between atoms: _505  and  _506
REMARK  205  A    between atoms: _509  and  _511
REMARK  206  A    between atoms: _511  and  _512
REMARK  207  A    between atoms: _511  and  _514
REMARK  208  A    between atoms: _514  and  _515
REMARK  209  A    between atoms: _520  and  _522
REMARK  210  A    between atoms: _522  and  _523
REMARK  211  A    between atoms: _522  and  _525
REMARK  212  A    between atoms: _525  and  _526
REMARK  213  A    between atoms: _529  and  _531
REMARK  214  A    between atoms: _531  and  _532
REMARK  215  A    between atoms: _531  and  _534
REMARK  216  A    between atoms: _534  and  _535
REMARK  217  A    between atoms: _538  and  _540
REMARK  218  A    between atoms: _540  and  _541
REMARK  219  A    between atoms: _543  and  _545
REMARK  220  A    between atoms: _545  and  _546
REMARK  221  A    between atoms: _545  and  _548
REMARK  222  A    between atoms: _548  and  _549
REMARK  223  A    between atoms: _549  and  _550
REMARK  224  A    between atoms: _550  and  _551
REMARK  225  A    between atoms: _560  and  _562
REMARK  226  A    between atoms: _562  and  _563
REMARK  227  A    between atoms: _562  and  _565
REMARK  228  A    between atoms: _565  and  _566
REMARK                            x       y       z     vdW  Elec       q    Type
REMARK                         _______ _______ _______ _____ _____    ______ ____
ROOT
ATOM      1  C   GLY A   5      14.633  16.356  15.673  0.00  0.00    +0.243 C 
ATOM      2  O   GLY A   5      13.861  17.092  16.271  0.00  0.00    -0.273 OA
ATOM      3  N   GLY A   6      15.800  16.730  15.154  0.00  0.00    -0.295 N 
ATOM      4  H   GLY A   6      16.435  16.019  14.739  0.00  0.00    +0.150 HD
ENDROOT
BRANCH   1   5
ATOM      5  CA  GLY A   5      14.324  14.901  15.422  0.00  0.00    +0.176 C 
BRANCH   5   8
ATOM      6  C   ILE A   4      14.123  13.284  17.199  0.00  0.00    +0.241 C 
ATOM      7  O   ILE A   4      15.230  12.794  17.022  0.00  0.00    -0.273 OA
ATOM      8  N   GLY A   5      13.625  14.273  16.493  0.00  0.00    -0.295 N 
ATOM      9  H   GLY A   5      12.671  14.615  16.728  0.00  0.00    +0.150 HD
BRANCH   6  10
ATOM     10  CA  ILE A   4      13.165  12.782  18.270  0.00  0.00    +0.149 C 
BRANCH  10  12
ATOM     11  C   MET A   3      12.489  10.466  18.515  0.00  0.00    +0.241 C 
ATOM     12  N   ILE A   4      13.455  11.365  18.532  0.00  0.00    -0.297 N 
ATOM     13  H   ILE A   4      14.431  11.068  18.733  0.00  0.00    +0.150 HD
ATOM     14  O   MET A   3      11.279  10.642  18.354  0.00  0.00    -0.273 OA
BRANCH  11  15
ATOM     15  CA  MET A   3      12.982   9.051  18.749  0.00  0.00    +0.149 C 
BRANCH  15  18
ATOM     16  C   LYS A   2      12.478   8.225  20.956  0.00  0.00    +0.241 C 
ATOM     17  O   LYS A   2      13.625   8.341  21.344  0.00  0.00    -0.273 OA
ATOM     18  N   MET A   3      12.080   8.459  19.716  0.00  0.00    -0.297 N 
ATOM     19  H   MET A   3      11.109   8.215  19.433  0.00  0.00    +0.150 HD
BRANCH  16  20
ATOM     20  CA  LYS A   2      11.353   7.774  21.871  0.00  0.00    +0.149 C 
BRANCH  20  23
ATOM     21  C   PRO A   1      11.059   5.827  23.305  0.00  0.00    +0.239 C 
ATOM     22  O   PRO A   1       9.847   5.784  23.113  0.00  0.00    -0.274 OA
ATOM     23  N   LYS A   2      11.849   6.794  22.806  0.00  0.00    -0.297 N 
ATOM     24  H   LYS A   2      12.845   6.836  23.102  0.00  0.00    +0.150 HD
BRANCH  21  29
ATOM     25  N   PRO A   1      10.959   4.253  25.231  0.00  0.00    -0.210 NA
ATOM     26  CD  PRO A   1      10.363   2.962  24.871  0.00  0.00    +0.089 C 
ATOM     27  CG  PRO A   1      10.781   2.809  23.423  0.00  0.00    +0.021 C 
ATOM     28  CB  PRO A   1      12.064   3.596  23.274  0.00  0.00    +0.028 C 
ATOM     29  CA  PRO A   1      11.799   4.794  24.155  0.00  0.00    +0.149 C 
ENDBRANCH  21  29
ENDBRANCH  20  23
BRANCH  20  30
ATOM     30  CB  LYS A   2      10.749   8.968  22.607  0.00  0.00    +0.029 C 
BRANCH  30  31
ATOM     31  CG  LYS A   2       9.391   8.660  23.139  0.00  0.00    +0.000 C 
BRANCH  31  32
ATOM     32  CD  LYS A   2       8.261   8.307  22.205  0.00  0.00    -0.024 C 
BRANCH  32  33
ATOM     33  CE  LYS A   2       7.168   7.496  22.898  0.00  0.00    -0.086 C 
BRANCH  33  34
ATOM     34  NZ  LYS A   2       5.982   8.335  23.241  0.00  0.00    +0.380 N 
ATOM     35  HZ1 LYS A   2       6.274   9.101  23.881  0.00  0.00    -0.089 HD
ATOM     36  HZ2 LYS A   2       5.265   7.745  23.709  0.00  0.00    -0.089 HD
ATOM     37  HZ3 LYS A   2       5.583   8.742  22.371  0.00  0.00    -0.089 HD
ENDBRANCH  33  34
ENDBRANCH  32  33
ENDBRANCH  31  32
ENDBRANCH  30  31
ENDBRANCH  20  30
ENDBRANCH  16  20
ENDBRANCH  15  18
BRANCH  15  38
ATOM     38  CB  MET A   3      13.005   8.213  17.471  0.00  0.00    +0.041 C 
BRANCH  38  39
ATOM     39  CG  MET A   3      13.911   6.975  17.535  0.00  0.00    +0.060 C 
BRANCH  39  40
ATOM     40  SD  MET A   3      15.556   7.511  16.995  0.00  0.00    -0.139 S 
ATOM     41  CE  MET A   3      15.249   7.734  15.243  0.00  0.00    +0.069 C 
ENDBRANCH  39  40
ENDBRANCH  38  39
ENDBRANCH  15  38
ENDBRANCH  11  15
ENDBRANCH  10  12
BRANCH  10  42
ATOM     42  CB  ILE A   4      13.260  13.639  19.539  0.00  0.00    +0.027 C 
ATOM     43  CG2 ILE A   4      12.207  13.183  20.527  0.00  0.00    +0.002 C 
BRANCH  42  44
ATOM     44  CG1 ILE A   4      14.656  13.646  20.150  0.00  0.00    +0.002 C 
ATOM     45  CD1 ILE A   4      14.867  14.652  21.254  0.00  0.00    +0.000 C 
ENDBRANCH  42  44
ENDBRANCH  10  42
ENDBRANCH   6  10
ENDBRANCH   5   8
ENDBRANCH   1   5
BRANCH   3  46
ATOM     46  CA  GLY A   6      16.191  18.137  15.166  0.00  0.00    +0.176 C 
BRANCH  46  47
ATOM     47  C   GLY A   6      16.913  18.456  13.858  0.00  0.00    +0.243 C 
ATOM     48  N   ILE A   7      17.639  19.559  13.912  0.00  0.00    -0.297 N 
ATOM     49  H   ILE A   7      17.771  20.063  14.812  0.00  0.00    +0.150 HD
ATOM     50  O   GLY A   6      16.857  17.771  12.831  0.00  0.00    -0.273 OA
BRANCH  48  51
ATOM     51  CA  ILE A   7      18.242  20.049  12.705  0.00  0.00    +0.149 C 
BRANCH  51  52
ATOM     52  C   ILE A   7      19.240  19.085  12.118  0.00  0.00    +0.241 C 
ATOM     53  N   GLY A   8      19.913  18.294  12.925  0.00  0.00    -0.295 N 
ATOM     54  H   GLY A   8      19.710  18.298  13.945  0.00  0.00    +0.150 HD
ATOM     55  O   ILE A   7      19.404  19.071  10.897  0.00  0.00    -0.273 OA
BRANCH  53  56
ATOM     56  CA  GLY A   8      20.948  17.408  12.388  0.00  0.00    +0.176 C 
BRANCH  56  57
ATOM     57  C   GLY A   8      20.506  15.994  12.101  0.00  0.00    +0.243 C 
ATOM     58  N   GLY A   9      19.265  15.650  12.434  0.00  0.00    -0.295 N 
ATOM     59  H   GLY A   9      18.610  16.369  12.804  0.00  0.00    +0.150 HD
ATOM     60  O   GLY A   8      21.261  15.180  11.567  0.00  0.00    -0.273 OA
BRANCH  58  61
ATOM     61  CA  GLY A   9      18.823  14.286  12.285  0.00  0.00    +0.176 C 
BRANCH  61  62
ATOM     62  C   GLY A   9      18.094  13.787  13.530  0.00  0.00    +0.243 C 
ATOM     63  O   GLY A   9      17.633  14.559  14.346  0.00  0.00    -0.273 OA
ATOM     64  N   PHE A  10      17.936  12.489  13.711  0.00  0.00    -0.297 N 
ATOM     65  H   PHE A  10      18.366  11.857  13.006  0.00  0.00    +0.150 HD
BRANCH  64  66
ATOM     66  CA  PHE A  10      17.230  11.875  14.784  0.00  0.00    +0.153 C 
BRANCH  66  67
ATOM     67  C   PHE A  10      18.161  11.304  15.858  0.00  0.00    +0.241 C 
ATOM     68  N   ILE A  11      17.695  11.310  17.092  0.00  0.00    -0.298 N 
ATOM     69  H   ILE A  11      16.798  11.802  17.278  0.00  0.00    +0.150 HD
ATOM     70  O   PHE A  10      19.258  10.848  15.538  0.00  0.00    -0.273 OA
BRANCH  68  71
ATOM     71  CA  ILE A  11      18.369  10.667  18.201  0.00  0.00    +0.137 C 
BRANCH  71  72
ATOM     72  CB  ILE A  11      19.049  11.707  19.119  0.00  0.00    +0.026 C 
ATOM     73  CG2 ILE A  11      20.186  12.450  18.425  0.00  0.00    +0.002 C 
BRANCH  72  74
ATOM     74  CG1 ILE A  11      18.117  12.750  19.751  0.00  0.00    +0.002 C 
ATOM     75  CD1 ILE A  11      18.757  13.556  20.857  0.00  0.00    +0.000 C 
ENDBRANCH  72  74
ENDBRANCH  71  72
BRANCH  71  76
ATOM     76  C   ILE A  11      17.360   9.856  19.009  0.00  0.00    +0.227 C 
ATOM     77  O   ILE A  11      16.152  10.147  19.036  0.00  0.00    -0.286 OA
ENDBRANCH  71  76
ENDBRANCH  68  71
ENDBRANCH  66  67
BRANCH  66  78
ATOM     78  CB  PHE A  10      16.406  10.680  14.253  0.00  0.00    +0.055 C 
BRANCH  78  79
ATOM     79  CG  PHE A  10      15.211  11.223  13.506  0.00  0.00    -0.020 A 
ATOM     80  CD2 PHE A  10      14.014  11.403  14.173  0.00  0.00    -0.004 A 
ATOM     81  CE2 PHE A  10      12.951  11.936  13.483  0.00  0.00    -0.000 A 
ATOM     82  CZ  PHE A  10      13.074  12.273  12.145  0.00  0.00    -0.000 A 
ATOM     83  CE1 PHE A  10      14.272  12.075  11.488  0.00  0.00    -0.000 A 
ATOM     84  CD1 PHE A  10      15.347  11.544  12.176  0.00  0.00    -0.004 A 
ENDBRANCH  78  79
ENDBRANCH  66  78
ENDBRANCH  64  66
ENDBRANCH  61  62
ENDBRANCH  58  61
ENDBRANCH  56  57
ENDBRANCH  53  56
ENDBRANCH  51  52
BRANCH  51  85
ATOM     85  CB  ILE A   7      18.951  21.401  12.995  0.00  0.00    +0.027 C 
ATOM     86  CG2 ILE A   7      20.325  21.244  13.562  0.00  0.00    +0.002 C 
BRANCH  85  87
ATOM     87  CG1 ILE A   7      18.994  22.234  11.709  0.00  0.00    +0.002 C 
ATOM     88  CD1 ILE A   7      19.579  23.615  11.853  0.00  0.00    +0.000 C 
ENDBRANCH  85  87
ENDBRANCH  51  85
ENDBRANCH  48  51
ENDBRANCH  46  47
ENDBRANCH   3  46
TORSDOF 37
REMARK  Name = ../refined-set-2016/2aoe/2aoe_pocket.pdb
REMARK  228 active torsions:
REMARK  status: ('A' for Active; 'I' for Inactive)
REMARK    1  A    between atoms: _1  and  _3
REMARK    2  A    between atoms: _3  and  _4
REMARK    3  A    between atoms: _3  and  _6
REMARK    4  A    between atoms: _6  and  _7
REMARK    5  A    between atoms: _7  and  _8
REMARK    6  A    between atoms: _8  and  _9
REMARK    7  A    between atoms: _18  and  _20
REMARK    8  A    between atoms: _20  and  _21
REMARK    9  A    between atoms: _20  and  _23
REMARK   10  A    between atoms: _23  and  _24
REMARK   11  A    between atoms: _27  and  _29
REMARK   12  A    between atoms: _29  and  _30
REMARK   13  A    between atoms: _29  and  _32
REMARK   14  A    between atoms: _32  and  _33
REMARK   15  A    between atoms: _36  and  _38
REMARK   16  A    between atoms: _38  and  _39
REMARK   17  A    between atoms: _38  and  _41
REMARK   18  A    between atoms: _41  and  _42
REMARK   19  A    between atoms: _45  and  _47
REMARK   20  A    between atoms: _47  and  _48
REMARK   21  A    between atoms: _50  and  _52
REMARK   22  A    between atoms: _52  and  _53
REMARK   23  A    between atoms: _56  and  _58
REMARK   24  A    between atoms: _58  and  _59
REMARK   25  A    between atoms: _58  and  _61
REMARK   26  A    between atoms: _61  and  _62
REMARK   27  A    between atoms: _65  and  _67
REMARK   28  A    between atoms: _67  and  _68
REMARK   29  A    between atoms: _67  and  _70
REMARK   30  A    between atoms: _70  and  _71
REMARK   31  A    between atoms: _74  and  _76
REMARK   32  A    between atoms: _76  and  _77
REMARK   33  A    between atoms: _76  and  _79
REMARK   34  A    between atoms: _79  and  _80
REMARK   35  A    between atoms: _83  and  _85
REMARK   36  A    between atoms: _85  and  _86
REMARK   37  A    between atoms: _85  and  _88
REMARK   38  A    between atoms: _91  and  _93
REMARK   39  A    between atoms: _93  and  _94
REMARK   40  A    between atoms: _93  and  _96
REMARK   41  A    between atoms: _97  and  _98
REMARK   42  A    between atoms: _98  and  _99
REMARK   43  A    between atoms: _99  and  _100
REMARK   44  A    between atoms: _104  and  _106
REMARK   45  A    between atoms: _106  and  _107
REMARK   46  A    between atoms: _106  and  _109
REMARK   47  A    between atoms: _109  and  _110
REMARK   48  A    between atoms: _110  and  _111
REMARK   49  A    between atoms: _113  and  _115
REMARK   50  A    between atoms: _115  and  _116
REMARK   51  A    between atoms: _115  and  _118
REMARK   52  A    between atoms: _118  and  _119
REMARK   53  A    between atoms: _122  and  _124
REMARK   54  A    between atoms: _124  and  _125
REMARK   55  A    between atoms: _127  and  _129
REMARK   56  A    between atoms: _129  and  _130
REMARK   57  A    between atoms: _132  and  _134
REMARK   58  A    between atoms: _134  and  _135
REMARK   59  A    between atoms: _134  and  _137
REMARK   60  A    between atoms: _137  and  _138
REMARK   61  A    between atoms: _141  and  _143
REMARK   62  A    between atoms: _143  and  _144
REMARK   63  A    between atoms: _146  and  _148
REMARK   64  A    between atoms: _148  and  _149
REMARK   65  A    between atoms: _151  and  _153
REMARK   66  A    between atoms: _153  and  _154
REMARK   67  A    between atoms: _153  and  _156
REMARK   68  A    between atoms: _156  and  _157
REMARK   69  A    between atoms: _163  and  _165
REMARK   70  A    between atoms: _165  and  _166
REMARK   71  A    between atoms: _165  and  _168
REMARK   72  A    between atoms: _168  and  _169
REMARK   73  A    between atoms: _172  and  _174
REMARK   74  A    between atoms: _174  and  _175
REMARK   75  A    between atoms: _174  and  _177
REMARK   76  A    between atoms: _180  and  _182
REMARK   77  A    between atoms: _182  and  _183
REMARK   78  A    between atoms: _182  and  _185
REMARK   79  A    between atoms: _185  and  _186
REMARK   80  A    between atoms: _189  and  _191
REMARK   81  A    between atoms: _191  and  _192
REMARK   82  A    between atoms: _191  and  _194
REMARK   83  A    between atoms: _194  and  _195
REMARK   84  A    between atoms: _199  and  _200
REMARK   85  A    between atoms: _205  and  _207
REMARK   86  A    between atoms: _207  and  _208
REMARK   87  A    between atoms: _211  and  _213
REMARK   88  A    between atoms: _213  and  _214
REMARK   89  A    between atoms: _213  and  _216
REMARK   90  A    between atoms: _216  and  _217
REMARK   91  A    between atoms: _222  and  _224
REMARK   92  A    between atoms: _224  and  _225
REMARK   93  A    between atoms: _224  and  _227
REMARK   94  A    between atoms: _227  and  _228
REMARK   95  A    between atoms: _231  and  _233
REMARK   96  A    between atoms: _233  and  _234
REMARK   97  A    between atoms: _233  and  _236
REMARK   98  A    between atoms: _236  and  _237
REMARK   99  A    between atoms: _240  and  _242
REMARK  100  A    between atoms: _242  and  _243
REMARK  101  A    between atoms: _245  and  _247
REMARK  102  A    between atoms: _247  and  _248
REMARK  103  A    between atoms: _247  and  _250
REMARK  104  A    between atoms: _250  and  _251
REMARK  105  A    between atoms: _251  and  _252
REMARK  106  A    between atoms: _252  and  _253
REMARK  107  A    between atoms: _262  and  _264
REMARK  108  A    between atoms: _264  and  _265
REMARK  109  A    between atoms: _264  and  _267
REMARK  110  A    between atoms: _267  and  _268
REMARK  111  A    between atoms: _273  and  _275
REMARK  112  A    between atoms: _275  and  _276
REMARK  113  A    between atoms: _275  and  _278
REMARK  114  A    between atoms: _278  and  _279
REMARK  115  A    between atoms: _279  and  _280
REMARK  116  A    between atoms: _280  and  _281
REMARK  117  A    between atoms: _290  and  _292
REMARK  118  A    between atoms: _292  and  _293
REMARK  119  A    between atoms: _292  and  _295
REMARK  120  A    between atoms: _295  and  _296
REMARK  121  A    between atoms: _299  and  _301
REMARK  122  A    between atoms: _301  and  _302
REMARK  123  A    between atoms: _301  and  _304
REMARK  124  A    between atoms: _304  and  _305
REMARK  125  A    between atoms: _308  and  _310
REMARK  126  A    between atoms: _310  and  _311
REMARK  127  A    between atoms: _310  and  _313
REMARK  128  A    between atoms: _313  and  _314
REMARK  129  A    between atoms: _317  and  _319
REMARK  130  A    between atoms: _319  and  _320
REMARK  131  A    between atoms: _322  and  _324
REMARK  132  A    between atoms: _324  and  _325
REMARK  133  A    between atoms: _328  and  _330
REMARK  134  A    between atoms: _330  and  _331
REMARK  135  A    between atoms: _330  and  _333
REMARK  136  A    between atoms: _333  and  _334
REMARK  137  A    between atoms: _337  and  _339
REMARK  138  A    between atoms: _339  and  _340
REMARK  139  A    between atoms: _339  and  _342
REMARK  140  A    between atoms: _342  and  _343
REMARK  141  A    between atoms: _346  and  _348
REMARK  142  A    between atoms: _348  and  _349
REMARK  143  A    between atoms: _348  and  _351
REMARK  144  A    between atoms: _351  and  _352
REMARK  145  A    between atoms: _355  and  _357
REMARK  146  A    between atoms: _357  and  _358
REMARK  147  A    between atoms: _357  and  _360
REMARK  148  A    between atoms: _364  and  _365
REMARK  149  A    between atoms: _370  and  _372
REMARK  150  A    between atoms: _372  and  _373
REMARK  151  A    between atoms: _372  and  _375
REMARK  152  A    between atoms: _375  and  _376
REMARK  153  A    between atoms: _376  and  _377
REMARK  154  A    between atoms: _377  and  _378
REMARK  155  A    between atoms: _378  and  _379
REMARK  156  A    between atoms: _383  and  _385
REMARK  157  A    between atoms: _385  and  _386
REMARK  158  A    between atoms: _385  and  _388
REMARK  159  A    between atoms: _388  and  _389
REMARK  160  A    between atoms: _389  and  _390
REMARK  161  A    between atoms: _392  and  _394
REMARK  162  A    between atoms: _394  and  _395
REMARK  163  A    between atoms: _394  and  _397
REMARK  164  A    between atoms: _397  and  _398
REMARK  165  A    between atoms: _401  and  _403
REMARK  166  A    between atoms: _403  and  _404
REMARK  167  A    between atoms: _406  and  _408
REMARK  168  A    between atoms: _408  and  _409
REMARK  169  A    between atoms: _411  and  _413
REMARK  170  A    between atoms: _413  and  _414
REMARK  171  A    between atoms: _413  and  _416
REMARK  172  A    between atoms: _416  and  _417
REMARK  173  A    between atoms: _420  and  _422
REMARK  174  A    between atoms: _422  and  _423
REMARK  175  A    between atoms: _425  and  _427
REMARK  176  A    between atoms: _427  and  _428
REMARK  177  A    between atoms: _430  and  _432
REMARK  178  A    between atoms: _432  and  _433
REMARK  179  A    between atoms: _432  and  _435
REMARK  180  A    between atoms: _435  and  _436
REMARK  181  A    between atoms: _442  and  _444
REMARK  182  A    between atoms: _444  and  _445
REMARK  183  A    between atoms: _444  and  _447
REMARK  184  A    between atoms: _447  and  _448
REMARK  185  A    between atoms: _451  and  _453
REMARK  186  A    between atoms: _453  and  _454
REMARK  187  A    between atoms: _453  and  _456
REMARK  188  A    between atoms: _459  and  _461
REMARK  189  A    between atoms: _461  and  _462
REMARK  190  A    between atoms: _461  and  _464
REMARK  191  A    between atoms: _464  and  _465
REMARK  192  A    between atoms: _465  and  _466
REMARK  193  A    between atoms: _471  and  _473
REMARK  194  A    between atoms: _473  and  _474
REMARK  195  A    between atoms: _473  and  _476
REMARK  196  A    between atoms: _476  and  _477
REMARK  197  A    between atoms: _481  and  _482
REMARK  198  A    between atoms: _487  and  _489
REMARK  199  A    between atoms: _489  and  _490
REMARK  200  A    between atoms: _489  and  _492
REMARK  201  A    between atoms: _492  and  _493
REMARK  202  A    between atoms: _497  and  _498
REMARK  203  A    between atoms: _503  and  _505
REMARK  204  A    between atoms: _505  and  _506
REMARK  205  A    between atoms: _509  and  _511
REMARK  206  A    between atoms: _511  and  _512
REMARK  207  A    between atoms: _511  and  _514
REMARK  208  A    between atoms: _514  and  _515
REMARK  209  A    between atoms: _520  and  _522
REMARK  210  A    between atoms: _522  and  _523
REMARK  211  A    between atoms: _522  and  _525
REMARK  212  A    between atoms: _525  and  _526
REMARK  213  A    between atoms: _529  and  _531
REMARK  214  A    between atoms: _531  and  _532
REMARK  215  A    between atoms: _531  and  _534
REMARK  216  A    between atoms: _534  and  _535
REMARK  217  A    between atoms: _538  and  _540
REMARK  218  A    between atoms: _540  and  _541
REMARK  219  A    between atoms: _543  and  _545
REMARK  220  A    between atoms: _545  and  _546
REMARK  221  A    between atoms: _545  and  _548
REMARK  222  A    between atoms: _548  and  _549
REMARK  223  A    between atoms: _549  and  _550
REMARK  224  A    between atoms: _550  and  _551
REMARK  225  A    between atoms: _560  and  _562
REMARK  226  A    between atoms: _562  and  _563
REMARK  227  A    between atoms: _562  and  _565
REMARK  228  A    between atoms: _565  and  _566
REMARK                            x       y       z     vdW  Elec       q    Type
REMARK                         _______ _______ _______ _____ _____    ______ ____
ROOT
ATOM      1  CA  VAL A   1      16.062   9.427  24.117  0.00  0.00    +0.133 C 
ENDROOT
BRANCH   1   2
ATOM      2  CB  VAL A   1      15.502  10.860  24.143  0.00  0.00    +0.023 C 
ATOM      3  CG2 VAL A   1      14.073  10.839  23.649  0.00  0.00    +0.002 C 
ATOM      4  CG1 VAL A   1      16.303  11.813  23.299  0.00  0.00    +0.002 C 
ENDBRANCH   1   2
BRANCH   1   5
ATOM      5  N   VAL A   1      16.083   8.885  22.779  0.00  0.00    -0.239 NA
ATOM      6  H   VAL A   1      15.189   8.580  22.344  0.00  0.00    +0.142 HD
ENDBRANCH   1   5
BRANCH   1   7
ATOM      7  C   VAL A   1      15.246   8.519  25.035  0.00  0.00    +0.224 C 
ATOM      8  O   VAL A   1      14.573   7.585  24.580  0.00  0.00    -0.287 OA
ENDBRANCH   1   7
TORSDOF 3
REMARK  Name = ../refined-set-2016/2aoe/2aoe_pocket.pdb
REMARK  228 active torsions:
REMARK  status: ('A' for Active; 'I' for Inactive)
REMARK    1  A    between atoms: _1  and  _3
REMARK    2  A    between atoms: _3  and  _4
REMARK    3  A    between atoms: _3  and  _6
REMARK    4  A    between atoms: _6  and  _7
REMARK    5  A    between atoms: _7  and  _8
REMARK    6  A    between atoms: _8  and  _9
REMARK    7  A    between atoms: _18  and  _20
REMARK    8  A    between atoms: _20  and  _21
REMARK    9  A    between atoms: _20  and  _23
REMARK   10  A    between atoms: _23  and  _24
REMARK   11  A    between atoms: _27  and  _29
REMARK   12  A    between atoms: _29  and  _30
REMARK   13  A    between atoms: _29  and  _32
REMARK   14  A    between atoms: _32  and  _33
REMARK   15  A    between atoms: _36  and  _38
REMARK   16  A    between atoms: _38  and  _39
REMARK   17  A    between atoms: _38  and  _41
REMARK   18  A    between atoms: _41  and  _42
REMARK   19  A    between atoms: _45  and  _47
REMARK   20  A    between atoms: _47  and  _48
REMARK   21  A    between atoms: _50  and  _52
REMARK   22  A    between atoms: _52  and  _53
REMARK   23  A    between atoms: _56  and  _58
REMARK   24  A    between atoms: _58  and  _59
REMARK   25  A    between atoms: _58  and  _61
REMARK   26  A    between atoms: _61  and  _62
REMARK   27  A    between atoms: _65  and  _67
REMARK   28  A    between atoms: _67  and  _68
REMARK   29  A    between atoms: _67  and  _70
REMARK   30  A    between atoms: _70  and  _71
REMARK   31  A    between atoms: _74  and  _76
REMARK   32  A    between atoms: _76  and  _77
REMARK   33  A    between atoms: _76  and  _79
REMARK   34  A    between atoms: _79  and  _80
REMARK   35  A    between atoms: _83  and  _85
REMARK   36  A    between atoms: _85  and  _86
REMARK   37  A    between atoms: _85  and  _88
REMARK   38  A    between atoms: _91  and  _93
REMARK   39  A    between atoms: _93  and  _94
REMARK   40  A    between atoms: _93  and  _96
REMARK   41  A    between atoms: _97  and  _98
REMARK   42  A    between atoms: _98  and  _99
REMARK   43  A    between atoms: _99  and  _100
REMARK   44  A    between atoms: _104  and  _106
REMARK   45  A    between atoms: _106  and  _107
REMARK   46  A    between atoms: _106  and  _109
REMARK   47  A    between atoms: _109  and  _110
REMARK   48  A    between atoms: _110  and  _111
REMARK   49  A    between atoms: _113  and  _115
REMARK   50  A    between atoms: _115  and  _116
REMARK   51  A    between atoms: _115  and  _118
REMARK   52  A    between atoms: _118  and  _119
REMARK   53  A    between atoms: _122  and  _124
REMARK   54  A    between atoms: _124  and  _125
REMARK   55  A    between atoms: _127  and  _129
REMARK   56  A    between atoms: _129  and  _130
REMARK   57  A    between atoms: _132  and  _134
REMARK   58  A    between atoms: _134  and  _135
REMARK   59  A    between atoms: _134  and  _137
REMARK   60  A    between atoms: _137  and  _138
REMARK   61  A    between atoms: _141  and  _143
REMARK   62  A    between atoms: _143  and  _144
REMARK   63  A    between atoms: _146  and  _148
REMARK   64  A    between atoms: _148  and  _149
REMARK   65  A    between atoms: _151  and  _153
REMARK   66  A    between atoms: _153  and  _154
REMARK   67  A    between atoms: _153  and  _156
REMARK   68  A    between atoms: _156  and  _157
REMARK   69  A    between atoms: _163  and  _165
REMARK   70  A    between atoms: _165  and  _166
REMARK   71  A    between atoms: _165  and  _168
REMARK   72  A    between atoms: _168  and  _169
REMARK   73  A    between atoms: _172  and  _174
REMARK   74  A    between atoms: _174  and  _175
REMARK   75  A    between atoms: _174  and  _177
REMARK   76  A    between atoms: _180  and  _182
REMARK   77  A    between atoms: _182  and  _183
REMARK   78  A    between atoms: _182  and  _185
REMARK   79  A    between atoms: _185  and  _186
REMARK   80  A    between atoms: _189  and  _191
REMARK   81  A    between atoms: _191  and  _192
REMARK   82  A    between atoms: _191  and  _194
REMARK   83  A    between atoms: _194  and  _195
REMARK   84  A    between atoms: _199  and  _200
REMARK   85  A    between atoms: _205  and  _207
REMARK   86  A    between atoms: _207  and  _208
REMARK   87  A    between atoms: _211  and  _213
REMARK   88  A    between atoms: _213  and  _214
REMARK   89  A    between atoms: _213  and  _216
REMARK   90  A    between atoms: _216  and  _217
REMARK   91  A    between atoms: _222  and  _224
REMARK   92  A    between atoms: _224  and  _225
REMARK   93  A    between atoms: _224  and  _227
REMARK   94  A    between atoms: _227  and  _228
REMARK   95  A    between atoms: _231  and  _233
REMARK   96  A    between atoms: _233  and  _234
REMARK   97  A    between atoms: _233  and  _236
REMARK   98  A    between atoms: _236  and  _237
REMARK   99  A    between atoms: _240  and  _242
REMARK  100  A    between atoms: _242  and  _243
REMARK  101  A    between atoms: _245  and  _247
REMARK  102  A    between atoms: _247  and  _248
REMARK  103  A    between atoms: _247  and  _250
REMARK  104  A    between atoms: _250  and  _251
REMARK  105  A    between atoms: _251  and  _252
REMARK  106  A    between atoms: _252  and  _253
REMARK  107  A    between atoms: _262  and  _264
REMARK  108  A    between atoms: _264  and  _265
REMARK  109  A    between atoms: _264  and  _267
REMARK  110  A    between atoms: _267  and  _268
REMARK  111  A    between atoms: _273  and  _275
REMARK  112  A    between atoms: _275  and  _276
REMARK  113  A    between atoms: _275  and  _278
REMARK  114  A    between atoms: _278  and  _279
REMARK  115  A    between atoms: _279  and  _280
REMARK  116  A    between atoms: _280  and  _281
REMARK  117  A    between atoms: _290  and  _292
REMARK  118  A    between atoms: _292  and  _293
REMARK  119  A    between atoms: _292  and  _295
REMARK  120  A    between atoms: _295  and  _296
REMARK  121  A    between atoms: _299  and  _301
REMARK  122  A    between atoms: _301  and  _302
REMARK  123  A    between atoms: _301  and  _304
REMARK  124  A    between atoms: _304  and  _305
REMARK  125  A    between atoms: _308  and  _310
REMARK  126  A    between atoms: _310  and  _311
REMARK  127  A    between atoms: _310  and  _313
REMARK  128  A    between atoms: _313  and  _314
REMARK  129  A    between atoms: _317  and  _319
REMARK  130  A    between atoms: _319  and  _320
REMARK  131  A    between atoms: _322  and  _324
REMARK  132  A    between atoms: _324  and  _325
REMARK  133  A    between atoms: _328  and  _330
REMARK  134  A    between atoms: _330  and  _331
REMARK  135  A    between atoms: _330  and  _333
REMARK  136  A    between atoms: _333  and  _334
REMARK  137  A    between atoms: _337  and  _339
REMARK  138  A    between atoms: _339  and  _340
REMARK  139  A    between atoms: _339  and  _342
REMARK  140  A    between atoms: _342  and  _343
REMARK  141  A    between atoms: _346  and  _348
REMARK  142  A    between atoms: _348  and  _349
REMARK  143  A    between atoms: _348  and  _351
REMARK  144  A    between atoms: _351  and  _352
REMARK  145  A    between atoms: _355  and  _357
REMARK  146  A    between atoms: _357  and  _358
REMARK  147  A    between atoms: _357  and  _360
REMARK  148  A    between atoms: _364  and  _365
REMARK  149  A    between atoms: _370  and  _372
REMARK  150  A    between atoms: _372  and  _373
REMARK  151  A    between atoms: _372  and  _375
REMARK  152  A    between atoms: _375  and  _376
REMARK  153  A    between atoms: _376  and  _377
REMARK  154  A    between atoms: _377  and  _378
REMARK  155  A    between atoms: _378  and  _379
REMARK  156  A    between atoms: _383  and  _385
REMARK  157  A    between atoms: _385  and  _386
REMARK  158  A    between atoms: _385  and  _388
REMARK  159  A    between atoms: _388  and  _389
REMARK  160  A    between atoms: _389  and  _390
REMARK  161  A    between atoms: _392  and  _394
REMARK  162  A    between atoms: _394  and  _395
REMARK  163  A    between atoms: _394  and  _397
REMARK  164  A    between atoms: _397  and  _398
REMARK  165  A    between atoms: _401  and  _403
REMARK  166  A    between atoms: _403  and  _404
REMARK  167  A    between atoms: _406  and  _408
REMARK  168  A    between atoms: _408  and  _409
REMARK  169  A    between atoms: _411  and  _413
REMARK  170  A    between atoms: _413  and  _414
REMARK  171  A    between atoms: _413  and  _416
REMARK  172  A    between atoms: _416  and  _417
REMARK  173  A    between atoms: _420  and  _422
REMARK  174  A    between atoms: _422  and  _423
REMARK  175  A    between atoms: _425  and  _427
REMARK  176  A    between atoms: _427  and  _428
REMARK  177  A    between atoms: _430  and  _432
REMARK  178  A    between atoms: _432  and  _433
REMARK  179  A    between atoms: _432  and  _435
REMARK  180  A    between atoms: _435  and  _436
REMARK  181  A    between atoms: _442  and  _444
REMARK  182  A    between atoms: _444  and  _445
REMARK  183  A    between atoms: _444  and  _447
REMARK  184  A    between atoms: _447  and  _448
REMARK  185  A    between atoms: _451  and  _453
REMARK  186  A    between atoms: _453  and  _454
REMARK  187  A    between atoms: _453  and  _456
REMARK  188  A    between atoms: _459  and  _461
REMARK  189  A    between atoms: _461  and  _462
REMARK  190  A    between atoms: _461  and  _464
REMARK  191  A    between atoms: _464  and  _465
REMARK  192  A    between atoms: _465  and  _466
REMARK  193  A    between atoms: _471  and  _473
REMARK  194  A    between atoms: _473  and  _474
REMARK  195  A    between atoms: _473  and  _476
REMARK  196  A    between atoms: _476  and  _477
REMARK  197  A    between atoms: _481  and  _482
REMARK  198  A    between atoms: _487  and  _489
REMARK  199  A    between atoms: _489  and  _490
REMARK  200  A    between atoms: _489  and  _492
REMARK  201  A    between atoms: _492  and  _493
REMARK  202  A    between atoms: _497  and  _498
REMARK  203  A    between atoms: _503  and  _505
REMARK  204  A    between atoms: _505  and  _506
REMARK  205  A    between atoms: _509  and  _511
REMARK  206  A    between atoms: _511  and  _512
REMARK  207  A    between atoms: _511  and  _514
REMARK  208  A    between atoms: _514  and  _515
REMARK  209  A    between atoms: _520  and  _522
REMARK  210  A    between atoms: _522  and  _523
REMARK  211  A    between atoms: _522  and  _525
REMARK  212  A    between atoms: _525  and  _526
REMARK  213  A    between atoms: _529  and  _531
REMARK  214  A    between atoms: _531  and  _532
REMARK  215  A    between atoms: _531  and  _534
REMARK  216  A    between atoms: _534  and  _535
REMARK  217  A    between atoms: _538  and  _540
REMARK  218  A    between atoms: _540  and  _541
REMARK  219  A    between atoms: _543  and  _545
REMARK  220  A    between atoms: _545  and  _546
REMARK  221  A    between atoms: _545  and  _548
REMARK  222  A    between atoms: _548  and  _549
REMARK  223  A    between atoms: _549  and  _550
REMARK  224  A    between atoms: _550  and  _551
REMARK  225  A    between atoms: _560  and  _562
REMARK  226  A    between atoms: _562  and  _563
REMARK  227  A    between atoms: _562  and  _565
REMARK  228  A    between atoms: _565  and  _566
REMARK                            x       y       z     vdW  Elec       q    Type
REMARK                         _______ _______ _______ _____ _____    ______ ____
ROOT
ATOM      1  CB  GLN A   1       9.891   8.988  27.047  0.00  0.00    +0.035 C 
ENDROOT
BRANCH   1   2
ATOM      2  CA  GLN A   1      11.039   9.191  28.025  0.00  0.00    +0.134 C 
BRANCH   2   3
ATOM      3  N   GLN A   1      12.204   8.437  27.601  0.00  0.00    -0.239 NA
ATOM      4  H   GLN A   1      12.092   7.492  27.182  0.00  0.00    +0.142 HD
ENDBRANCH   2   3
BRANCH   2   5
ATOM      5  C   GLN A   1      10.582   8.816  29.432  0.00  0.00    +0.224 C 
ATOM      6  O   GLN A   1      10.249   7.665  29.626  0.00  0.00    -0.287 OA
ENDBRANCH   2   5
ENDBRANCH   1   2
BRANCH   1   7
ATOM      7  CG  GLN A   1       8.627   9.716  27.439  0.00  0.00    +0.087 C 
BRANCH   7   8
ATOM      8  CD  GLN A   1       7.534   9.545  26.416  0.00  0.00    +0.219 C 
ATOM      9  NE2 GLN A   1       6.301   9.660  26.852  0.00  0.00    -0.329 N 
ATOM     10 HE21 GLN A   1       6.121   9.858  27.857  0.00  0.00    +0.145 HD
ATOM     11 HE22 GLN A   1       5.504   9.553  26.192  0.00  0.00    +0.145 HD
ATOM     12  OE1 GLN A   1       7.714   9.314  25.238  0.00  0.00    -0.275 OA
ENDBRANCH   7   8
ENDBRANCH   1   7
TORSDOF 5
REMARK  Name = ../refined-set-2016/2aoe/2aoe_pocket.pdb
REMARK  228 active torsions:
REMARK  status: ('A' for Active; 'I' for Inactive)
REMARK    1  A    between atoms: _1  and  _3
REMARK    2  A    between atoms: _3  and  _4
REMARK    3  A    between atoms: _3  and  _6
REMARK    4  A    between atoms: _6  and  _7
REMARK    5  A    between atoms: _7  and  _8
REMARK    6  A    between atoms: _8  and  _9
REMARK    7  A    between atoms: _18  and  _20
REMARK    8  A    between atoms: _20  and  _21
REMARK    9  A    between atoms: _20  and  _23
REMARK   10  A    between atoms: _23  and  _24
REMARK   11  A    between atoms: _27  and  _29
REMARK   12  A    between atoms: _29  and  _30
REMARK   13  A    between atoms: _29  and  _32
REMARK   14  A    between atoms: _32  and  _33
REMARK   15  A    between atoms: _36  and  _38
REMARK   16  A    between atoms: _38  and  _39
REMARK   17  A    between atoms: _38  and  _41
REMARK   18  A    between atoms: _41  and  _42
REMARK   19  A    between atoms: _45  and  _47
REMARK   20  A    between atoms: _47  and  _48
REMARK   21  A    between atoms: _50  and  _52
REMARK   22  A    between atoms: _52  and  _53
REMARK   23  A    between atoms: _56  and  _58
REMARK   24  A    between atoms: _58  and  _59
REMARK   25  A    between atoms: _58  and  _61
REMARK   26  A    between atoms: _61  and  _62
REMARK   27  A    between atoms: _65  and  _67
REMARK   28  A    between atoms: _67  and  _68
REMARK   29  A    between atoms: _67  and  _70
REMARK   30  A    between atoms: _70  and  _71
REMARK   31  A    between atoms: _74  and  _76
REMARK   32  A    between atoms: _76  and  _77
REMARK   33  A    between atoms: _76  and  _79
REMARK   34  A    between atoms: _79  and  _80
REMARK   35  A    between atoms: _83  and  _85
REMARK   36  A    between atoms: _85  and  _86
REMARK   37  A    between atoms: _85  and  _88
REMARK   38  A    between atoms: _91  and  _93
REMARK   39  A    between atoms: _93  and  _94
REMARK   40  A    between atoms: _93  and  _96
REMARK   41  A    between atoms: _97  and  _98
REMARK   42  A    between atoms: _98  and  _99
REMARK   43  A    between atoms: _99  and  _100
REMARK   44  A    between atoms: _104  and  _106
REMARK   45  A    between atoms: _106  and  _107
REMARK   46  A    between atoms: _106  and  _109
REMARK   47  A    between atoms: _109  and  _110
REMARK   48  A    between atoms: _110  and  _111
REMARK   49  A    between atoms: _113  and  _115
REMARK   50  A    between atoms: _115  and  _116
REMARK   51  A    between atoms: _115  and  _118
REMARK   52  A    between atoms: _118  and  _119
REMARK   53  A    between atoms: _122  and  _124
REMARK   54  A    between atoms: _124  and  _125
REMARK   55  A    between atoms: _127  and  _129
REMARK   56  A    between atoms: _129  and  _130
REMARK   57  A    between atoms: _132  and  _134
REMARK   58  A    between atoms: _134  and  _135
REMARK   59  A    between atoms: _134  and  _137
REMARK   60  A    between atoms: _137  and  _138
REMARK   61  A    between atoms: _141  and  _143
REMARK   62  A    between atoms: _143  and  _144
REMARK   63  A    between atoms: _146  and  _148
REMARK   64  A    between atoms: _148  and  _149
REMARK   65  A    between atoms: _151  and  _153
REMARK   66  A    between atoms: _153  and  _154
REMARK   67  A    between atoms: _153  and  _156
REMARK   68  A    between atoms: _156  and  _157
REMARK   69  A    between atoms: _163  and  _165
REMARK   70  A    between atoms: _165  and  _166
REMARK   71  A    between atoms: _165  and  _168
REMARK   72  A    between atoms: _168  and  _169
REMARK   73  A    between atoms: _172  and  _174
REMARK   74  A    between atoms: _174  and  _175
REMARK   75  A    between atoms: _174  and  _177
REMARK   76  A    between atoms: _180  and  _182
REMARK   77  A    between atoms: _182  and  _183
REMARK   78  A    between atoms: _182  and  _185
REMARK   79  A    between atoms: _185  and  _186
REMARK   80  A    between atoms: _189  and  _191
REMARK   81  A    between atoms: _191  and  _192
REMARK   82  A    between atoms: _191  and  _194
REMARK   83  A    between atoms: _194  and  _195
REMARK   84  A    between atoms: _199  and  _200
REMARK   85  A    between atoms: _205  and  _207
REMARK   86  A    between atoms: _207  and  _208
REMARK   87  A    between atoms: _211  and  _213
REMARK   88  A    between atoms: _213  and  _214
REMARK   89  A    between atoms: _213  and  _216
REMARK   90  A    between atoms: _216  and  _217
REMARK   91  A    between atoms: _222  and  _224
REMARK   92  A    between atoms: _224  and  _225
REMARK   93  A    between atoms: _224  and  _227
REMARK   94  A    between atoms: _227  and  _228
REMARK   95  A    between atoms: _231  and  _233
REMARK   96  A    between atoms: _233  and  _234
REMARK   97  A    between atoms: _233  and  _236
REMARK   98  A    between atoms: _236  and  _237
REMARK   99  A    between atoms: _240  and  _242
REMARK  100  A    between atoms: _242  and  _243
REMARK  101  A    between atoms: _245  and  _247
REMARK  102  A    between atoms: _247  and  _248
REMARK  103  A    between atoms: _247  and  _250
REMARK  104  A    between atoms: _250  and  _251
REMARK  105  A    between atoms: _251  and  _252
REMARK  106  A    between atoms: _252  and  _253
REMARK  107  A    between atoms: _262  and  _264
REMARK  108  A    between atoms: _264  and  _265
REMARK  109  A    between atoms: _264  and  _267
REMARK  110  A    between atoms: _267  and  _268
REMARK  111  A    between atoms: _273  and  _275
REMARK  112  A    between atoms: _275  and  _276
REMARK  113  A    between atoms: _275  and  _278
REMARK  114  A    between atoms: _278  and  _279
REMARK  115  A    between atoms: _279  and  _280
REMARK  116  A    between atoms: _280  and  _281
REMARK  117  A    between atoms: _290  and  _292
REMARK  118  A    between atoms: _292  and  _293
REMARK  119  A    between atoms: _292  and  _295
REMARK  120  A    between atoms: _295  and  _296
REMARK  121  A    between atoms: _299  and  _301
REMARK  122  A    between atoms: _301  and  _302
REMARK  123  A    between atoms: _301  and  _304
REMARK  124  A    between atoms: _304  and  _305
REMARK  125  A    between atoms: _308  and  _310
REMARK  126  A    between atoms: _310  and  _311
REMARK  127  A    between atoms: _310  and  _313
REMARK  128  A    between atoms: _313  and  _314
REMARK  129  A    between atoms: _317  and  _319
REMARK  130  A    between atoms: _319  and  _320
REMARK  131  A    between atoms: _322  and  _324
REMARK  132  A    between atoms: _324  and  _325
REMARK  133  A    between atoms: _328  and  _330
REMARK  134  A    between atoms: _330  and  _331
REMARK  135  A    between atoms: _330  and  _333
REMARK  136  A    between atoms: _333  and  _334
REMARK  137  A    between atoms: _337  and  _339
REMARK  138  A    between atoms: _339  and  _340
REMARK  139  A    between atoms: _339  and  _342
REMARK  140  A    between atoms: _342  and  _343
REMARK  141  A    between atoms: _346  and  _348
REMARK  142  A    between atoms: _348  and  _349
REMARK  143  A    between atoms: _348  and  _351
REMARK  144  A    between atoms: _351  and  _352
REMARK  145  A    between atoms: _355  and  _357
REMARK  146  A    between atoms: _357  and  _358
REMARK  147  A    between atoms: _357  and  _360
REMARK  148  A    between atoms: _364  and  _365
REMARK  149  A    between atoms: _370  and  _372
REMARK  150  A    between atoms: _372  and  _373
REMARK  151  A    between atoms: _372  and  _375
REMARK  152  A    between atoms: _375  and  _376
REMARK  153  A    between atoms: _376  and  _377
REMARK  154  A    between atoms: _377  and  _378
REMARK  155  A    between atoms: _378  and  _379
REMARK  156  A    between atoms: _383  and  _385
REMARK  157  A    between atoms: _385  and  _386
REMARK  158  A    between atoms: _385  and  _388
REMARK  159  A    between atoms: _388  and  _389
REMARK  160  A    between atoms: _389  and  _390
REMARK  161  A    between atoms: _392  and  _394
REMARK  162  A    between atoms: _394  and  _395
REMARK  163  A    between atoms: _394  and  _397
REMARK  164  A    between atoms: _397  and  _398
REMARK  165  A    between atoms: _401  and  _403
REMARK  166  A    between atoms: _403  and  _404
REMARK  167  A    between atoms: _406  and  _408
REMARK  168  A    between atoms: _408  and  _409
REMARK  169  A    between atoms: _411  and  _413
REMARK  170  A    between atoms: _413  and  _414
REMARK  171  A    between atoms: _413  and  _416
REMARK  172  A    between atoms: _416  and  _417
REMARK  173  A    between atoms: _420  and  _422
REMARK  174  A    between atoms: _422  and  _423
REMARK  175  A    between atoms: _425  and  _427
REMARK  176  A    between atoms: _427  and  _428
REMARK  177  A    between atoms: _430  and  _432
REMARK  178  A    between atoms: _432  and  _433
REMARK  179  A    between atoms: _432  and  _435
REMARK  180  A    between atoms: _435  and  _436
REMARK  181  A    between atoms: _442  and  _444
REMARK  182  A    between atoms: _444  and  _445
REMARK  183  A    between atoms: _444  and  _447
REMARK  184  A    between atoms: _447  and  _448
REMARK  185  A    between atoms: _451  and  _453
REMARK  186  A    between atoms: _453  and  _454
REMARK  187  A    between atoms: _453  and  _456
REMARK  188  A    between atoms: _459  and  _461
REMARK  189  A    between atoms: _461  and  _462
REMARK  190  A    between atoms: _461  and  _464
REMARK  191  A    between atoms: _464  and  _465
REMARK  192  A    between atoms: _465  and  _466
REMARK  193  A    between atoms: _471  and  _473
REMARK  194  A    between atoms: _473  and  _474
REMARK  195  A    between atoms: _473  and  _476
REMARK  196  A    between atoms: _476  and  _477
REMARK  197  A    between atoms: _481  and  _482
REMARK  198  A    between atoms: _487  and  _489
REMARK  199  A    between atoms: _489  and  _490
REMARK  200  A    between atoms: _489  and  _492
REMARK  201  A    between atoms: _492  and  _493
REMARK  202  A    between atoms: _497  and  _498
REMARK  203  A    between atoms: _503  and  _505
REMARK  204  A    between atoms: _505  and  _506
REMARK  205  A    between atoms: _509  and  _511
REMARK  206  A    between atoms: _511  and  _512
REMARK  207  A    between atoms: _511  and  _514
REMARK  208  A    between atoms: _514  and  _515
REMARK  209  A    between atoms: _520  and  _522
REMARK  210  A    between atoms: _522  and  _523
REMARK  211  A    between atoms: _522  and  _525
REMARK  212  A    between atoms: _525  and  _526
REMARK  213  A    between atoms: _529  and  _531
REMARK  214  A    between atoms: _531  and  _532
REMARK  215  A    between atoms: _531  and  _534
REMARK  216  A    between atoms: _534  and  _535
REMARK  217  A    between atoms: _538  and  _540
REMARK  218  A    between atoms: _540  and  _541
REMARK  219  A    between atoms: _543  and  _545
REMARK  220  A    between atoms: _545  and  _546
REMARK  221  A    between atoms: _545  and  _548
REMARK  222  A    between atoms: _548  and  _549
REMARK  223  A    between atoms: _549  and  _550
REMARK  224  A    between atoms: _550  and  _551
REMARK  225  A    between atoms: _560  and  _562
REMARK  226  A    between atoms: _562  and  _563
REMARK  227  A    between atoms: _562  and  _565
REMARK  228  A    between atoms: _565  and  _566
REMARK                            x       y       z     vdW  Elec       q    Type
REMARK                         _______ _______ _______ _____ _____    ______ ____
ROOT
ATOM      1  CA  LEU A   1      13.109  13.275  27.637  0.00  0.00    +0.133 C 
ENDROOT
BRANCH   1   2
ATOM      2  N   LEU A   1      12.280  14.140  28.450  0.00  0.00    -0.239 NA
ATOM      3  H   LEU A   1      12.193  15.139  28.172  0.00  0.00    +0.142 HD
ENDBRANCH   1   2
BRANCH   1   4
ATOM      4  C   LEU A   1      14.559  13.511  28.054  0.00  0.00    +0.224 C 
ATOM      5  O   LEU A   1      14.976  14.632  28.272  0.00  0.00    -0.287 OA
ENDBRANCH   1   4
BRANCH   1   6
ATOM      6  CB  LEU A   1      12.946  13.520  26.148  0.00  0.00    +0.025 C 
BRANCH   6   7
ATOM      7  CG  LEU A   1      11.488  13.590  25.656  0.00  0.00    +0.002 C 
ATOM      8  CD2 LEU A   1      10.750  12.317  25.973  0.00  0.00    +0.000 C 
ATOM      9  CD1 LEU A   1      11.423  13.879  24.169  0.00  0.00    +0.000 C 
ENDBRANCH   6   7
ENDBRANCH   1   6
TORSDOF 4
REMARK  Name = ../refined-set-2016/2aoe/2aoe_pocket.pdb
REMARK  228 active torsions:
REMARK  status: ('A' for Active; 'I' for Inactive)
REMARK    1  A    between atoms: _1  and  _3
REMARK    2  A    between atoms: _3  and  _4
REMARK    3  A    between atoms: _3  and  _6
REMARK    4  A    between atoms: _6  and  _7
REMARK    5  A    between atoms: _7  and  _8
REMARK    6  A    between atoms: _8  and  _9
REMARK    7  A    between atoms: _18  and  _20
REMARK    8  A    between atoms: _20  and  _21
REMARK    9  A    between atoms: _20  and  _23
REMARK   10  A    between atoms: _23  and  _24
REMARK   11  A    between atoms: _27  and  _29
REMARK   12  A    between atoms: _29  and  _30
REMARK   13  A    between atoms: _29  and  _32
REMARK   14  A    between atoms: _32  and  _33
REMARK   15  A    between atoms: _36  and  _38
REMARK   16  A    between atoms: _38  and  _39
REMARK   17  A    between atoms: _38  and  _41
REMARK   18  A    between atoms: _41  and  _42
REMARK   19  A    between atoms: _45  and  _47
REMARK   20  A    between atoms: _47  and  _48
REMARK   21  A    between atoms: _50  and  _52
REMARK   22  A    between atoms: _52  and  _53
REMARK   23  A    between atoms: _56  and  _58
REMARK   24  A    between atoms: _58  and  _59
REMARK   25  A    between atoms: _58  and  _61
REMARK   26  A    between atoms: _61  and  _62
REMARK   27  A    between atoms: _65  and  _67
REMARK   28  A    between atoms: _67  and  _68
REMARK   29  A    between atoms: _67  and  _70
REMARK   30  A    between atoms: _70  and  _71
REMARK   31  A    between atoms: _74  and  _76
REMARK   32  A    between atoms: _76  and  _77
REMARK   33  A    between atoms: _76  and  _79
REMARK   34  A    between atoms: _79  and  _80
REMARK   35  A    between atoms: _83  and  _85
REMARK   36  A    between atoms: _85  and  _86
REMARK   37  A    between atoms: _85  and  _88
REMARK   38  A    between atoms: _91  and  _93
REMARK   39  A    between atoms: _93  and  _94
REMARK   40  A    between atoms: _93  and  _96
REMARK   41  A    between atoms: _97  and  _98
REMARK   42  A    between atoms: _98  and  _99
REMARK   43  A    between atoms: _99  and  _100
REMARK   44  A    between atoms: _104  and  _106
REMARK   45  A    between atoms: _106  and  _107
REMARK   46  A    between atoms: _106  and  _109
REMARK   47  A    between atoms: _109  and  _110
REMARK   48  A    between atoms: _110  and  _111
REMARK   49  A    between atoms: _113  and  _115
REMARK   50  A    between atoms: _115  and  _116
REMARK   51  A    between atoms: _115  and  _118
REMARK   52  A    between atoms: _118  and  _119
REMARK   53  A    between atoms: _122  and  _124
REMARK   54  A    between atoms: _124  and  _125
REMARK   55  A    between atoms: _127  and  _129
REMARK   56  A    between atoms: _129  and  _130
REMARK   57  A    between atoms: _132  and  _134
REMARK   58  A    between atoms: _134  and  _135
REMARK   59  A    between atoms: _134  and  _137
REMARK   60  A    between atoms: _137  and  _138
REMARK   61  A    between atoms: _141  and  _143
REMARK   62  A    between atoms: _143  and  _144
REMARK   63  A    between atoms: _146  and  _148
REMARK   64  A    between atoms: _148  and  _149
REMARK   65  A    between atoms: _151  and  _153
REMARK   66  A    between atoms: _153  and  _154
REMARK   67  A    between atoms: _153  and  _156
REMARK   68  A    between atoms: _156  and  _157
REMARK   69  A    between atoms: _163  and  _165
REMARK   70  A    between atoms: _165  and  _166
REMARK   71  A    between atoms: _165  and  _168
REMARK   72  A    between atoms: _168  and  _169
REMARK   73  A    between atoms: _172  and  _174
REMARK   74  A    between atoms: _174  and  _175
REMARK   75  A    between atoms: _174  and  _177
REMARK   76  A    between atoms: _180  and  _182
REMARK   77  A    between atoms: _182  and  _183
REMARK   78  A    between atoms: _182  and  _185
REMARK   79  A    between atoms: _185  and  _186
REMARK   80  A    between atoms: _189  and  _191
REMARK   81  A    between atoms: _191  and  _192
REMARK   82  A    between atoms: _191  and  _194
REMARK   83  A    between atoms: _194  and  _195
REMARK   84  A    between atoms: _199  and  _200
REMARK   85  A    between atoms: _205  and  _207
REMARK   86  A    between atoms: _207  and  _208
REMARK   87  A    between atoms: _211  and  _213
REMARK   88  A    between atoms: _213  and  _214
REMARK   89  A    between atoms: _213  and  _216
REMARK   90  A    between atoms: _216  and  _217
REMARK   91  A    between atoms: _222  and  _224
REMARK   92  A    between atoms: _224  and  _225
REMARK   93  A    between atoms: _224  and  _227
REMARK   94  A    between atoms: _227  and  _228
REMARK   95  A    between atoms: _231  and  _233
REMARK   96  A    between atoms: _233  and  _234
REMARK   97  A    between atoms: _233  and  _236
REMARK   98  A    between atoms: _236  and  _237
REMARK   99  A    between atoms: _240  and  _242
REMARK  100  A    between atoms: _242  and  _243
REMARK  101  A    between atoms: _245  and  _247
REMARK  102  A    between atoms: _247  and  _248
REMARK  103  A    between atoms: _247  and  _250
REMARK  104  A    between atoms: _250  and  _251
REMARK  105  A    between atoms: _251  and  _252
REMARK  106  A    between atoms: _252  and  _253
REMARK  107  A    between atoms: _262  and  _264
REMARK  108  A    between atoms: _264  and  _265
REMARK  109  A    between atoms: _264  and  _267
REMARK  110  A    between atoms: _267  and  _268
REMARK  111  A    between atoms: _273  and  _275
REMARK  112  A    between atoms: _275  and  _276
REMARK  113  A    between atoms: _275  and  _278
REMARK  114  A    between atoms: _278  and  _279
REMARK  115  A    between atoms: _279  and  _280
REMARK  116  A    between atoms: _280  and  _281
REMARK  117  A    between atoms: _290  and  _292
REMARK  118  A    between atoms: _292  and  _293
REMARK  119  A    between atoms: _292  and  _295
REMARK  120  A    between atoms: _295  and  _296
REMARK  121  A    between atoms: _299  and  _301
REMARK  122  A    between atoms: _301  and  _302
REMARK  123  A    between atoms: _301  and  _304
REMARK  124  A    between atoms: _304  and  _305
REMARK  125  A    between atoms: _308  and  _310
REMARK  126  A    between atoms: _310  and  _311
REMARK  127  A    between atoms: _310  and  _313
REMARK  128  A    between atoms: _313  and  _314
REMARK  129  A    between atoms: _317  and  _319
REMARK  130  A    between atoms: _319  and  _320
REMARK  131  A    between atoms: _322  and  _324
REMARK  132  A    between atoms: _324  and  _325
REMARK  133  A    between atoms: _328  and  _330
REMARK  134  A    between atoms: _330  and  _331
REMARK  135  A    between atoms: _330  and  _333
REMARK  136  A    between atoms: _333  and  _334
REMARK  137  A    between atoms: _337  and  _339
REMARK  138  A    between atoms: _339  and  _340
REMARK  139  A    between atoms: _339  and  _342
REMARK  140  A    between atoms: _342  and  _343
REMARK  141  A    between atoms: _346  and  _348
REMARK  142  A    between atoms: _348  and  _349
REMARK  143  A    between atoms: _348  and  _351
REMARK  144  A    between atoms: _351  and  _352
REMARK  145  A    between atoms: _355  and  _357
REMARK  146  A    between atoms: _357  and  _358
REMARK  147  A    between atoms: _357  and  _360
REMARK  148  A    between atoms: _364  and  _365
REMARK  149  A    between atoms: _370  and  _372
REMARK  150  A    between atoms: _372  and  _373
REMARK  151  A    between atoms: _372  and  _375
REMARK  152  A    between atoms: _375  and  _376
REMARK  153  A    between atoms: _376  and  _377
REMARK  154  A    between atoms: _377  and  _378
REMARK  155  A    between atoms: _378  and  _379
REMARK  156  A    between atoms: _383  and  _385
REMARK  157  A    between atoms: _385  and  _386
REMARK  158  A    between atoms: _385  and  _388
REMARK  159  A    between atoms: _388  and  _389
REMARK  160  A    between atoms: _389  and  _390
REMARK  161  A    between atoms: _392  and  _394
REMARK  162  A    between atoms: _394  and  _395
REMARK  163  A    between atoms: _394  and  _397
REMARK  164  A    between atoms: _397  and  _398
REMARK  165  A    between atoms: _401  and  _403
REMARK  166  A    between atoms: _403  and  _404
REMARK  167  A    between atoms: _406  and  _408
REMARK  168  A    between atoms: _408  and  _409
REMARK  169  A    between atoms: _411  and  _413
REMARK  170  A    between atoms: _413  and  _414
REMARK  171  A    between atoms: _413  and  _416
REMARK  172  A    between atoms: _416  and  _417
REMARK  173  A    between atoms: _420  and  _422
REMARK  174  A    between atoms: _422  and  _423
REMARK  175  A    between atoms: _425  and  _427
REMARK  176  A    between atoms: _427  and  _428
REMARK  177  A    between atoms: _430  and  _432
REMARK  178  A    between atoms: _432  and  _433
REMARK  179  A    between atoms: _432  and  _435
REMARK  180  A    between atoms: _435  and  _436
REMARK  181  A    between atoms: _442  and  _444
REMARK  182  A    between atoms: _444  and  _445
REMARK  183  A    between atoms: _444  and  _447
REMARK  184  A    between atoms: _447  and  _448
REMARK  185  A    between atoms: _451  and  _453
REMARK  186  A    between atoms: _453  and  _454
REMARK  187  A    between atoms: _453  and  _456
REMARK  188  A    between atoms: _459  and  _461
REMARK  189  A    between atoms: _461  and  _462
REMARK  190  A    between atoms: _461  and  _464
REMARK  191  A    between atoms: _464  and  _465
REMARK  192  A    between atoms: _465  and  _466
REMARK  193  A    between atoms: _471  and  _473
REMARK  194  A    between atoms: _473  and  _474
REMARK  195  A    between atoms: _473  and  _476
REMARK  196  A    between atoms: _476  and  _477
REMARK  197  A    between atoms: _481  and  _482
REMARK  198  A    between atoms: _487  and  _489
REMARK  199  A    between atoms: _489  and  _490
REMARK  200  A    between atoms: _489  and  _492
REMARK  201  A    between atoms: _492  and  _493
REMARK  202  A    between atoms: _497  and  _498
REMARK  203  A    between atoms: _503  and  _505
REMARK  204  A    between atoms: _505  and  _506
REMARK  205  A    between atoms: _509  and  _511
REMARK  206  A    between atoms: _511  and  _512
REMARK  207  A    between atoms: _511  and  _514
REMARK  208  A    between atoms: _514  and  _515
REMARK  209  A    between atoms: _520  and  _522
REMARK  210  A    between atoms: _522  and  _523
REMARK  211  A    between atoms: _522  and  _525
REMARK  212  A    between atoms: _525  and  _526
REMARK  213  A    between atoms: _529  and  _531
REMARK  214  A    between atoms: _531  and  _532
REMARK  215  A    between atoms: _531  and  _534
REMARK  216  A    between atoms: _534  and  _535
REMARK  217  A    between atoms: _538  and  _540
REMARK  218  A    between atoms: _540  and  _541
REMARK  219  A    between atoms: _543  and  _545
REMARK  220  A    between atoms: _545  and  _546
REMARK  221  A    between atoms: _545  and  _548
REMARK  222  A    between atoms: _548  and  _549
REMARK  223  A    between atoms: _549  and  _550
REMARK  224  A    between atoms: _550  and  _551
REMARK  225  A    between atoms: _560  and  _562
REMARK  226  A    between atoms: _562  and  _563
REMARK  227  A    between atoms: _562  and  _565
REMARK  228  A    between atoms: _565  and  _566
REMARK                            x       y       z     vdW  Elec       q    Type
REMARK                         _______ _______ _______ _____ _____    ______ ____
ROOT
ATOM      1  CA  ILE A   6      15.461  22.584  26.393  0.00  0.00    +0.149 C 
ENDROOT
BRANCH   1   2
ATOM      2  C   ILE A   6      14.101  22.337  27.023  0.00  0.00    +0.241 C 
ATOM      3  N   ILE A   7      13.391  23.449  27.278  0.00  0.00    -0.297 N 
ATOM      4  H   ILE A   7      13.832  24.381  27.146  0.00  0.00    +0.150 HD
ATOM      5  O   ILE A   6      13.708  21.185  27.244  0.00  0.00    -0.273 OA
BRANCH   3   6
ATOM      6  CA  ILE A   7      12.007  23.365  27.738  0.00  0.00    +0.149 C 
BRANCH   6   7
ATOM      7  C   ILE A   7      11.109  23.598  26.530  0.00  0.00    +0.241 C 
ATOM      8  N   GLY A   8      10.373  22.578  26.144  0.00  0.00    -0.295 N 
ATOM      9  H   GLY A   8      10.395  21.721  26.733  0.00  0.00    +0.150 HD
ATOM     10  O   ILE A   7      11.120  24.691  25.951  0.00  0.00    -0.273 OA
BRANCH   8  11
ATOM     11  CA  GLY A   8       9.540  22.556  24.970  0.00  0.00    +0.176 C 
BRANCH  11  12
ATOM     12  C   GLY A   8       8.089  22.879  25.308  0.00  0.00    +0.243 C 
ATOM     13  O   GLY A   8       7.736  23.172  26.460  0.00  0.00    -0.273 OA
ATOM     14  N   ARG A   9       7.281  22.821  24.255  0.00  0.00    -0.297 N 
ATOM     15  H   ARG A   9       7.604  22.427  23.349  0.00  0.00    +0.150 HD
BRANCH  14  16
ATOM     16  CA  ARG A   9       5.920  23.332  24.417  0.00  0.00    +0.149 C 
BRANCH  16  17
ATOM     17  C   ARG A   9       5.118  22.545  25.429  0.00  0.00    +0.241 C 
ATOM     18  O   ARG A   9       4.193  23.090  26.051  0.00  0.00    -0.273 OA
ATOM     19  N   ASN A  10       5.437  21.269  25.636  0.00  0.00    -0.298 N 
ATOM     20  H   ASN A  10       6.236  20.839  25.127  0.00  0.00    +0.150 HD
BRANCH  19  21
ATOM     21  CA  ASN A  10       4.651  20.472  26.589  0.00  0.00    +0.146 C 
BRANCH  21  22
ATOM     22  C   ASN A  10       4.683  21.107  27.970  0.00  0.00    +0.227 C 
ATOM     23  O   ASN A  10       3.682  20.993  28.694  0.00  0.00    -0.286 OA
ENDBRANCH  21  22
BRANCH  21  24
ATOM     24  CB  ASN A  10       5.102  19.024  26.667  0.00  0.00    +0.112 C 
BRANCH  24  25
ATOM     25  CG  ASN A  10       6.459  18.817  27.286  0.00  0.00    +0.222 C 
ATOM     26  ND2 ASN A  10       6.503  17.916  28.255  0.00  0.00    -0.329 N 
ATOM     27 HD21 ASN A  10       7.406  17.701  28.725  0.00  0.00    +0.145 HD
ATOM     28 HD22 ASN A  10       5.635  17.423  28.547  0.00  0.00    +0.145 HD
ATOM     29  OD1 ASN A  10       7.435  19.456  26.868  0.00  0.00    -0.275 OA
ENDBRANCH  24  25
ENDBRANCH  21  24
ENDBRANCH  19  21
ENDBRANCH  16  17
BRANCH  16  30
ATOM     30  CB  ARG A   9       5.223  23.368  23.052  0.00  0.00    +0.033 C 
BRANCH  30  31
ATOM     31  CG  ARG A   9       5.824  24.412  22.141  0.00  0.00    +0.045 C 
BRANCH  31  32
ATOM     32  CD  ARG A   9       5.031  24.653  20.861  0.00  0.00    +0.174 C 
BRANCH  32  33
ATOM     33  NE  ARG A   9       4.987  23.402  20.124  0.00  0.00    -0.265 N 
ATOM     34  CZ  ARG A   9       4.050  22.483  20.079  0.00  0.00    +0.342 C 
ATOM     35  NH2 ARG A   9       2.912  22.654  20.766  0.00  0.00    -0.292 N 
ATOM     36 HH21 ARG A   9       2.772  23.514  21.334  0.00  0.00    +0.255 HD
ATOM     37 HH22 ARG A   9       2.169  21.927  20.731  0.00  0.00    +0.255 HD
ATOM     38  NH1 ARG A   9       4.196  21.377  19.359  0.00  0.00    -0.292 N 
ATOM     39 HH11 ARG A   9       3.438  20.665  19.341  0.00  0.00    +0.255 HD
ATOM     40 HH12 ARG A   9       5.068  21.223  18.814  0.00  0.00    +0.255 HD
ATOM     41  HE  ARG A   9       5.826  23.204  19.543  0.00  0.00    +0.259 HD
ENDBRANCH  32  33
ENDBRANCH  31  32
ENDBRANCH  30  31
ENDBRANCH  16  30
ENDBRANCH  14  16
ENDBRANCH  11  12
ENDBRANCH   8  11
ENDBRANCH   6   7
BRANCH   6  42
ATOM     42  CB  ILE A   7      11.721  24.419  28.808  0.00  0.00    +0.027 C 
ATOM     43  CG2 ILE A   7      10.288  24.297  29.281  0.00  0.00    +0.002 C 
BRANCH  42  44
ATOM     44  CG1 ILE A   7      12.724  24.369  29.968  0.00  0.00    +0.002 C 
ATOM     45  CD1 ILE A   7      12.803  22.998  30.619  0.00  0.00    +0.000 C 
ENDBRANCH  42  44
ENDBRANCH   6  42
ENDBRANCH   3   6
ENDBRANCH   1   2
BRANCH   1  48
ATOM     46  C   ASN A   5      17.591  22.433  27.525  0.00  0.00    +0.241 C 
ATOM     47  O   ASN A   5      17.850  23.634  27.496  0.00  0.00    -0.273 OA
ATOM     48  N   ILE A   6      16.501  21.850  27.060  0.00  0.00    -0.297 N 
ATOM     49  H   ILE A   6      16.391  20.823  27.181  0.00  0.00    +0.150 HD
BRANCH  46  50
ATOM     50  CA  ASN A   5      18.612  21.509  28.146  0.00  0.00    +0.158 C 
BRANCH  50  52
ATOM     51  C   ALA A   4      20.092  21.518  26.236  0.00  0.00    +0.241 C 
ATOM     52  N   ASN A   5      19.891  21.791  27.504  0.00  0.00    -0.297 N 
ATOM     53  H   ASN A   5      20.659  22.217  28.062  0.00  0.00    +0.150 HD
ATOM     54  O   ALA A   4      19.324  20.857  25.568  0.00  0.00    -0.273 OA
BRANCH  51  55
ATOM     55  CA  ALA A   4      21.347  22.067  25.559  0.00  0.00    +0.149 C 
ATOM     56  CB  ALA A   4      21.068  23.463  25.034  0.00  0.00    +0.031 C 
BRANCH  55  59
ATOM     57  C   PRO A   3      23.017  21.082  24.098  0.00  0.00    +0.241 C 
ATOM     58  O   PRO A   3      23.929  21.760  24.558  0.00  0.00    -0.273 OA
ATOM     59  N   ALA A   4      21.763  21.137  24.525  0.00  0.00    -0.297 N 
ATOM     60  H   ALA A   4      21.058  20.496  24.108  0.00  0.00    +0.150 HD
BRANCH  57  64
ATOM     61  C   THR A   2      22.215  18.168  23.740  0.00  0.00    +0.246 C 
ATOM     62  O   THR A   2      22.935  18.136  24.737  0.00  0.00    -0.273 OA
ATOM     63  N   PRO A   3      22.371  19.071  22.776  0.00  0.00    -0.272 N 
ATOM     64  CA  PRO A   3      23.354  20.127  22.963  0.00  0.00    +0.152 C 
ATOM     65  CB  PRO A   3      23.296  20.926  21.662  0.00  0.00    +0.031 C 
ATOM     66  CG  PRO A   3      22.602  20.061  20.681  0.00  0.00    +0.024 C 
ATOM     67  CD  PRO A   3      21.727  19.124  21.452  0.00  0.00    +0.094 C 
BRANCH  61  68
ATOM     68  CA  THR A   2      21.113  17.143  23.534  0.00  0.00    +0.176 C 
BRANCH  68  70
ATOM     69  C   PRO A   1      21.937  14.883  23.329  0.00  0.00    +0.239 C 
ATOM     70  N   THR A   2      21.564  15.891  24.093  0.00  0.00    -0.295 N 
ATOM     71  H   THR A   2      21.596  15.781  25.127  0.00  0.00    +0.150 HD
ATOM     72  O   PRO A   1      21.929  15.023  22.109  0.00  0.00    -0.274 OA
BRANCH  69  74
ATOM     73  N   PRO A   1      21.230  12.801  24.498  0.00  0.00    -0.210 NA
ATOM     74  CA  PRO A   1      22.365  13.627  24.062  0.00  0.00    +0.149 C 
ATOM     75  CB  PRO A   1      23.114  12.734  23.089  0.00  0.00    +0.028 C 
ATOM     76  CG  PRO A   1      22.034  11.863  22.509  0.00  0.00    +0.021 C 
ATOM     77  CD  PRO A   1      21.056  11.609  23.634  0.00  0.00    +0.089 C 
ENDBRANCH  69  74
ENDBRANCH  68  70
BRANCH  68  78
ATOM     78  CB  THR A   2      19.775  17.601  24.156  0.00  0.00    +0.137 C 
ATOM     79  CG2 THR A   2      19.836  17.625  25.669  0.00  0.00    +0.034 C 
BRANCH  78  80
ATOM     80  OG1 THR A   2      19.478  18.934  23.711  0.00  0.00    -0.382 OA
ATOM     81  HG1 THR A   2      20.203  19.545  23.995  0.00  0.00    +0.210 HD
ENDBRANCH  78  80
ENDBRANCH  68  78
ENDBRANCH  61  68
ENDBRANCH  57  64
ENDBRANCH  55  59
ENDBRANCH  51  55
ENDBRANCH  50  52
BRANCH  50  82
ATOM     82  CB  ASN A   5      18.699  21.773  29.636  0.00  0.00    +0.114 C 
BRANCH  82  83
ATOM     83  CG  ASN A   5      19.689  20.849  30.312  0.00  0.00    +0.222 C 
ATOM     84  ND2 ASN A   5      20.323  21.361  31.335  0.00  0.00    -0.329 N 
ATOM     85 HD21 ASN A   5      21.015  20.788  31.858  0.00  0.00    +0.145 HD
ATOM     86 HD22 ASN A   5      20.135  22.342  31.626  0.00  0.00    +0.145 HD
ATOM     87  OD1 ASN A   5      19.890  19.704  29.950  0.00  0.00    -0.275 OA
ENDBRANCH  82  83
ENDBRANCH  50  82
ENDBRANCH  46  50
ENDBRANCH   1  48
BRANCH   1  88
ATOM     88  CB  ILE A   6      15.451  22.003  24.950  0.00  0.00    +0.027 C 
ATOM     89  CG2 ILE A   6      14.287  22.518  24.133  0.00  0.00    +0.002 C 
BRANCH  88  90
ATOM     90  CG1 ILE A   6      16.783  22.192  24.220  0.00  0.00    +0.002 C 
ATOM     91  CD1 ILE A   6      17.098  21.178  23.144  0.00  0.00    +0.000 C 
ENDBRANCH  88  90
ENDBRANCH   1  88
TORSDOF 32
REMARK  Name = ../refined-set-2016/2aoe/2aoe_pocket.pdb
REMARK  228 active torsions:
REMARK  status: ('A' for Active; 'I' for Inactive)
REMARK    1  A    between atoms: _1  and  _3
REMARK    2  A    between atoms: _3  and  _4
REMARK    3  A    between atoms: _3  and  _6
REMARK    4  A    between atoms: _6  and  _7
REMARK    5  A    between atoms: _7  and  _8
REMARK    6  A    between atoms: _8  and  _9
REMARK    7  A    between atoms: _18  and  _20
REMARK    8  A    between atoms: _20  and  _21
REMARK    9  A    between atoms: _20  and  _23
REMARK   10  A    between atoms: _23  and  _24
REMARK   11  A    between atoms: _27  and  _29
REMARK   12  A    between atoms: _29  and  _30
REMARK   13  A    between atoms: _29  and  _32
REMARK   14  A    between atoms: _32  and  _33
REMARK   15  A    between atoms: _36  and  _38
REMARK   16  A    between atoms: _38  and  _39
REMARK   17  A    between atoms: _38  and  _41
REMARK   18  A    between atoms: _41  and  _42
REMARK   19  A    between atoms: _45  and  _47
REMARK   20  A    between atoms: _47  and  _48
REMARK   21  A    between atoms: _50  and  _52
REMARK   22  A    between atoms: _52  and  _53
REMARK   23  A    between atoms: _56  and  _58
REMARK   24  A    between atoms: _58  and  _59
REMARK   25  A    between atoms: _58  and  _61
REMARK   26  A    between atoms: _61  and  _62
REMARK   27  A    between atoms: _65  and  _67
REMARK   28  A    between atoms: _67  and  _68
REMARK   29  A    between atoms: _67  and  _70
REMARK   30  A    between atoms: _70  and  _71
REMARK   31  A    between atoms: _74  and  _76
REMARK   32  A    between atoms: _76  and  _77
REMARK   33  A    between atoms: _76  and  _79
REMARK   34  A    between atoms: _79  and  _80
REMARK   35  A    between atoms: _83  and  _85
REMARK   36  A    between atoms: _85  and  _86
REMARK   37  A    between atoms: _85  and  _88
REMARK   38  A    between atoms: _91  and  _93
REMARK   39  A    between atoms: _93  and  _94
REMARK   40  A    between atoms: _93  and  _96
REMARK   41  A    between atoms: _97  and  _98
REMARK   42  A    between atoms: _98  and  _99
REMARK   43  A    between atoms: _99  and  _100
REMARK   44  A    between atoms: _104  and  _106
REMARK   45  A    between atoms: _106  and  _107
REMARK   46  A    between atoms: _106  and  _109
REMARK   47  A    between atoms: _109  and  _110
REMARK   48  A    between atoms: _110  and  _111
REMARK   49  A    between atoms: _113  and  _115
REMARK   50  A    between atoms: _115  and  _116
REMARK   51  A    between atoms: _115  and  _118
REMARK   52  A    between atoms: _118  and  _119
REMARK   53  A    between atoms: _122  and  _124
REMARK   54  A    between atoms: _124  and  _125
REMARK   55  A    between atoms: _127  and  _129
REMARK   56  A    between atoms: _129  and  _130
REMARK   57  A    between atoms: _132  and  _134
REMARK   58  A    between atoms: _134  and  _135
REMARK   59  A    between atoms: _134  and  _137
REMARK   60  A    between atoms: _137  and  _138
REMARK   61  A    between atoms: _141  and  _143
REMARK   62  A    between atoms: _143  and  _144
REMARK   63  A    between atoms: _146  and  _148
REMARK   64  A    between atoms: _148  and  _149
REMARK   65  A    between atoms: _151  and  _153
REMARK   66  A    between atoms: _153  and  _154
REMARK   67  A    between atoms: _153  and  _156
REMARK   68  A    between atoms: _156  and  _157
REMARK   69  A    between atoms: _163  and  _165
REMARK   70  A    between atoms: _165  and  _166
REMARK   71  A    between atoms: _165  and  _168
REMARK   72  A    between atoms: _168  and  _169
REMARK   73  A    between atoms: _172  and  _174
REMARK   74  A    between atoms: _174  and  _175
REMARK   75  A    between atoms: _174  and  _177
REMARK   76  A    between atoms: _180  and  _182
REMARK   77  A    between atoms: _182  and  _183
REMARK   78  A    between atoms: _182  and  _185
REMARK   79  A    between atoms: _185  and  _186
REMARK   80  A    between atoms: _189  and  _191
REMARK   81  A    between atoms: _191  and  _192
REMARK   82  A    between atoms: _191  and  _194
REMARK   83  A    between atoms: _194  and  _195
REMARK   84  A    between atoms: _199  and  _200
REMARK   85  A    between atoms: _205  and  _207
REMARK   86  A    between atoms: _207  and  _208
REMARK   87  A    between atoms: _211  and  _213
REMARK   88  A    between atoms: _213  and  _214
REMARK   89  A    between atoms: _213  and  _216
REMARK   90  A    between atoms: _216  and  _217
REMARK   91  A    between atoms: _222  and  _224
REMARK   92  A    between atoms: _224  and  _225
REMARK   93  A    between atoms: _224  and  _227
REMARK   94  A    between atoms: _227  and  _228
REMARK   95  A    between atoms: _231  and  _233
REMARK   96  A    between atoms: _233  and  _234
REMARK   97  A    between atoms: _233  and  _236
REMARK   98  A    between atoms: _236  and  _237
REMARK   99  A    between atoms: _240  and  _242
REMARK  100  A    between atoms: _242  and  _243
REMARK  101  A    between atoms: _245  and  _247
REMARK  102  A    between atoms: _247  and  _248
REMARK  103  A    between atoms: _247  and  _250
REMARK  104  A    between atoms: _250  and  _251
REMARK  105  A    between atoms: _251  and  _252
REMARK  106  A    between atoms: _252  and  _253
REMARK  107  A    between atoms: _262  and  _264
REMARK  108  A    between atoms: _264  and  _265
REMARK  109  A    between atoms: _264  and  _267
REMARK  110  A    between atoms: _267  and  _268
REMARK  111  A    between atoms: _273  and  _275
REMARK  112  A    between atoms: _275  and  _276
REMARK  113  A    between atoms: _275  and  _278
REMARK  114  A    between atoms: _278  and  _279
REMARK  115  A    between atoms: _279  and  _280
REMARK  116  A    between atoms: _280  and  _281
REMARK  117  A    between atoms: _290  and  _292
REMARK  118  A    between atoms: _292  and  _293
REMARK  119  A    between atoms: _292  and  _295
REMARK  120  A    between atoms: _295  and  _296
REMARK  121  A    between atoms: _299  and  _301
REMARK  122  A    between atoms: _301  and  _302
REMARK  123  A    between atoms: _301  and  _304
REMARK  124  A    between atoms: _304  and  _305
REMARK  125  A    between atoms: _308  and  _310
REMARK  126  A    between atoms: _310  and  _311
REMARK  127  A    between atoms: _310  and  _313
REMARK  128  A    between atoms: _313  and  _314
REMARK  129  A    between atoms: _317  and  _319
REMARK  130  A    between atoms: _319  and  _320
REMARK  131  A    between atoms: _322  and  _324
REMARK  132  A    between atoms: _324  and  _325
REMARK  133  A    between atoms: _328  and  _330
REMARK  134  A    between atoms: _330  and  _331
REMARK  135  A    between atoms: _330  and  _333
REMARK  136  A    between atoms: _333  and  _334
REMARK  137  A    between atoms: _337  and  _339
REMARK  138  A    between atoms: _339  and  _340
REMARK  139  A    between atoms: _339  and  _342
REMARK  140  A    between atoms: _342  and  _343
REMARK  141  A    between atoms: _346  and  _348
REMARK  142  A    between atoms: _348  and  _349
REMARK  143  A    between atoms: _348  and  _351
REMARK  144  A    between atoms: _351  and  _352
REMARK  145  A    between atoms: _355  and  _357
REMARK  146  A    between atoms: _357  and  _358
REMARK  147  A    between atoms: _357  and  _360
REMARK  148  A    between atoms: _364  and  _365
REMARK  149  A    between atoms: _370  and  _372
REMARK  150  A    between atoms: _372  and  _373
REMARK  151  A    between atoms: _372  and  _375
REMARK  152  A    between atoms: _375  and  _376
REMARK  153  A    between atoms: _376  and  _377
REMARK  154  A    between atoms: _377  and  _378
REMARK  155  A    between atoms: _378  and  _379
REMARK  156  A    between atoms: _383  and  _385
REMARK  157  A    between atoms: _385  and  _386
REMARK  158  A    between atoms: _385  and  _388
REMARK  159  A    between atoms: _388  and  _389
REMARK  160  A    between atoms: _389  and  _390
REMARK  161  A    between atoms: _392  and  _394
REMARK  162  A    between atoms: _394  and  _395
REMARK  163  A    between atoms: _394  and  _397
REMARK  164  A    between atoms: _397  and  _398
REMARK  165  A    between atoms: _401  and  _403
REMARK  166  A    between atoms: _403  and  _404
REMARK  167  A    between atoms: _406  and  _408
REMARK  168  A    between atoms: _408  and  _409
REMARK  169  A    between atoms: _411  and  _413
REMARK  170  A    between atoms: _413  and  _414
REMARK  171  A    between atoms: _413  and  _416
REMARK  172  A    between atoms: _416  and  _417
REMARK  173  A    between atoms: _420  and  _422
REMARK  174  A    between atoms: _422  and  _423
REMARK  175  A    between atoms: _425  and  _427
REMARK  176  A    between atoms: _427  and  _428
REMARK  177  A    between atoms: _430  and  _432
REMARK  178  A    between atoms: _432  and  _433
REMARK  179  A    between atoms: _432  and  _435
REMARK  180  A    between atoms: _435  and  _436
REMARK  181  A    between atoms: _442  and  _444
REMARK  182  A    between atoms: _444  and  _445
REMARK  183  A    between atoms: _444  and  _447
REMARK  184  A    between atoms: _447  and  _448
REMARK  185  A    between atoms: _451  and  _453
REMARK  186  A    between atoms: _453  and  _454
REMARK  187  A    between atoms: _453  and  _456
REMARK  188  A    between atoms: _459  and  _461
REMARK  189  A    between atoms: _461  and  _462
REMARK  190  A    between atoms: _461  and  _464
REMARK  191  A    between atoms: _464  and  _465
REMARK  192  A    between atoms: _465  and  _466
REMARK  193  A    between atoms: _471  and  _473
REMARK  194  A    between atoms: _473  and  _474
REMARK  195  A    between atoms: _473  and  _476
REMARK  196  A    between atoms: _476  and  _477
REMARK  197  A    between atoms: _481  and  _482
REMARK  198  A    between atoms: _487  and  _489
REMARK  199  A    between atoms: _489  and  _490
REMARK  200  A    between atoms: _489  and  _492
REMARK  201  A    between atoms: _492  and  _493
REMARK  202  A    between atoms: _497  and  _498
REMARK  203  A    between atoms: _503  and  _505
REMARK  204  A    between atoms: _505  and  _506
REMARK  205  A    between atoms: _509  and  _511
REMARK  206  A    between atoms: _511  and  _512
REMARK  207  A    between atoms: _511  and  _514
REMARK  208  A    between atoms: _514  and  _515
REMARK  209  A    between atoms: _520  and  _522
REMARK  210  A    between atoms: _522  and  _523
REMARK  211  A    between atoms: _522  and  _525
REMARK  212  A    between atoms: _525  and  _526
REMARK  213  A    between atoms: _529  and  _531
REMARK  214  A    between atoms: _531  and  _532
REMARK  215  A    between atoms: _531  and  _534
REMARK  216  A    between atoms: _534  and  _535
REMARK  217  A    between atoms: _538  and  _540
REMARK  218  A    between atoms: _540  and  _541
REMARK  219  A    between atoms: _543  and  _545
REMARK  220  A    between atoms: _545  and  _546
REMARK  221  A    between atoms: _545  and  _548
REMARK  222  A    between atoms: _548  and  _549
REMARK  223  A    between atoms: _549  and  _550
REMARK  224  A    between atoms: _550  and  _551
REMARK  225  A    between atoms: _560  and  _562
REMARK  226  A    between atoms: _562  and  _563
REMARK  227  A    between atoms: _562  and  _565
REMARK  228  A    between atoms: _565  and  _566
REMARK                            x       y       z     vdW  Elec       q    Type
REMARK                         _______ _______ _______ _____ _____    ______ ____
ROOT
ATOM      1  O   HOH     1      18.148  30.692  21.614  0.00  0.00    +0.000 OA
ENDROOT
TORSDOF 0
REMARK  Name = ../refined-set-2016/2aoe/2aoe_pocket.pdb
REMARK  228 active torsions:
REMARK  status: ('A' for Active; 'I' for Inactive)
REMARK    1  A    between atoms: _1  and  _3
REMARK    2  A    between atoms: _3  and  _4
REMARK    3  A    between atoms: _3  and  _6
REMARK    4  A    between atoms: _6  and  _7
REMARK    5  A    between atoms: _7  and  _8
REMARK    6  A    between atoms: _8  and  _9
REMARK    7  A    between atoms: _18  and  _20
REMARK    8  A    between atoms: _20  and  _21
REMARK    9  A    between atoms: _20  and  _23
REMARK   10  A    between atoms: _23  and  _24
REMARK   11  A    between atoms: _27  and  _29
REMARK   12  A    between atoms: _29  and  _30
REMARK   13  A    between atoms: _29  and  _32
REMARK   14  A    between atoms: _32  and  _33
REMARK   15  A    between atoms: _36  and  _38
REMARK   16  A    between atoms: _38  and  _39
REMARK   17  A    between atoms: _38  and  _41
REMARK   18  A    between atoms: _41  and  _42
REMARK   19  A    between atoms: _45  and  _47
REMARK   20  A    between atoms: _47  and  _48
REMARK   21  A    between atoms: _50  and  _52
REMARK   22  A    between atoms: _52  and  _53
REMARK   23  A    between atoms: _56  and  _58
REMARK   24  A    between atoms: _58  and  _59
REMARK   25  A    between atoms: _58  and  _61
REMARK   26  A    between atoms: _61  and  _62
REMARK   27  A    between atoms: _65  and  _67
REMARK   28  A    between atoms: _67  and  _68
REMARK   29  A    between atoms: _67  and  _70
REMARK   30  A    between atoms: _70  and  _71
REMARK   31  A    between atoms: _74  and  _76
REMARK   32  A    between atoms: _76  and  _77
REMARK   33  A    between atoms: _76  and  _79
REMARK   34  A    between atoms: _79  and  _80
REMARK   35  A    between atoms: _83  and  _85
REMARK   36  A    between atoms: _85  and  _86
REMARK   37  A    between atoms: _85  and  _88
REMARK   38  A    between atoms: _91  and  _93
REMARK   39  A    between atoms: _93  and  _94
REMARK   40  A    between atoms: _93  and  _96
REMARK   41  A    between atoms: _97  and  _98
REMARK   42  A    between atoms: _98  and  _99
REMARK   43  A    between atoms: _99  and  _100
REMARK   44  A    between atoms: _104  and  _106
REMARK   45  A    between atoms: _106  and  _107
REMARK   46  A    between atoms: _106  and  _109
REMARK   47  A    between atoms: _109  and  _110
REMARK   48  A    between atoms: _110  and  _111
REMARK   49  A    between atoms: _113  and  _115
REMARK   50  A    between atoms: _115  and  _116
REMARK   51  A    between atoms: _115  and  _118
REMARK   52  A    between atoms: _118  and  _119
REMARK   53  A    between atoms: _122  and  _124
REMARK   54  A    between atoms: _124  and  _125
REMARK   55  A    between atoms: _127  and  _129
REMARK   56  A    between atoms: _129  and  _130
REMARK   57  A    between atoms: _132  and  _134
REMARK   58  A    between atoms: _134  and  _135
REMARK   59  A    between atoms: _134  and  _137
REMARK   60  A    between atoms: _137  and  _138
REMARK   61  A    between atoms: _141  and  _143
REMARK   62  A    between atoms: _143  and  _144
REMARK   63  A    between atoms: _146  and  _148
REMARK   64  A    between atoms: _148  and  _149
REMARK   65  A    between atoms: _151  and  _153
REMARK   66  A    between atoms: _153  and  _154
REMARK   67  A    between atoms: _153  and  _156
REMARK   68  A    between atoms: _156  and  _157
REMARK   69  A    between atoms: _163  and  _165
REMARK   70  A    between atoms: _165  and  _166
REMARK   71  A    between atoms: _165  and  _168
REMARK   72  A    between atoms: _168  and  _169
REMARK   73  A    between atoms: _172  and  _174
REMARK   74  A    between atoms: _174  and  _175
REMARK   75  A    between atoms: _174  and  _177
REMARK   76  A    between atoms: _180  and  _182
REMARK   77  A    between atoms: _182  and  _183
REMARK   78  A    between atoms: _182  and  _185
REMARK   79  A    between atoms: _185  and  _186
REMARK   80  A    between atoms: _189  and  _191
REMARK   81  A    between atoms: _191  and  _192
REMARK   82  A    between atoms: _191  and  _194
REMARK   83  A    between atoms: _194  and  _195
REMARK   84  A    between atoms: _199  and  _200
REMARK   85  A    between atoms: _205  and  _207
REMARK   86  A    between atoms: _207  and  _208
REMARK   87  A    between atoms: _211  and  _213
REMARK   88  A    between atoms: _213  and  _214
REMARK   89  A    between atoms: _213  and  _216
REMARK   90  A    between atoms: _216  and  _217
REMARK   91  A    between atoms: _222  and  _224
REMARK   92  A    between atoms: _224  and  _225
REMARK   93  A    between atoms: _224  and  _227
REMARK   94  A    between atoms: _227  and  _228
REMARK   95  A    between atoms: _231  and  _233
REMARK   96  A    between atoms: _233  and  _234
REMARK   97  A    between atoms: _233  and  _236
REMARK   98  A    between atoms: _236  and  _237
REMARK   99  A    between atoms: _240  and  _242
REMARK  100  A    between atoms: _242  and  _243
REMARK  101  A    between atoms: _245  and  _247
REMARK  102  A    between atoms: _247  and  _248
REMARK  103  A    between atoms: _247  and  _250
REMARK  104  A    between atoms: _250  and  _251
REMARK  105  A    between atoms: _251  and  _252
REMARK  106  A    between atoms: _252  and  _253
REMARK  107  A    between atoms: _262  and  _264
REMARK  108  A    between atoms: _264  and  _265
REMARK  109  A    between atoms: _264  and  _267
REMARK  110  A    between atoms: _267  and  _268
REMARK  111  A    between atoms: _273  and  _275
REMARK  112  A    between atoms: _275  and  _276
REMARK  113  A    between atoms: _275  and  _278
REMARK  114  A    between atoms: _278  and  _279
REMARK  115  A    between atoms: _279  and  _280
REMARK  116  A    between atoms: _280  and  _281
REMARK  117  A    between atoms: _290  and  _292
REMARK  118  A    between atoms: _292  and  _293
REMARK  119  A    between atoms: _292  and  _295
REMARK  120  A    between atoms: _295  and  _296
REMARK  121  A    between atoms: _299  and  _301
REMARK  122  A    between atoms: _301  and  _302
REMARK  123  A    between atoms: _301  and  _304
REMARK  124  A    between atoms: _304  and  _305
REMARK  125  A    between atoms: _308  and  _310
REMARK  126  A    between atoms: _310  and  _311
REMARK  127  A    between atoms: _310  and  _313
REMARK  128  A    between atoms: _313  and  _314
REMARK  129  A    between atoms: _317  and  _319
REMARK  130  A    between atoms: _319  and  _320
REMARK  131  A    between atoms: _322  and  _324
REMARK  132  A    between atoms: _324  and  _325
REMARK  133  A    between atoms: _328  and  _330
REMARK  134  A    between atoms: _330  and  _331
REMARK  135  A    between atoms: _330  and  _333
REMARK  136  A    between atoms: _333  and  _334
REMARK  137  A    between atoms: _337  and  _339
REMARK  138  A    between atoms: _339  and  _340
REMARK  139  A    between atoms: _339  and  _342
REMARK  140  A    between atoms: _342  and  _343
REMARK  141  A    between atoms: _346  and  _348
REMARK  142  A    between atoms: _348  and  _349
REMARK  143  A    between atoms: _348  and  _351
REMARK  144  A    between atoms: _351  and  _352
REMARK  145  A    between atoms: _355  and  _357
REMARK  146  A    between atoms: _357  and  _358
REMARK  147  A    between atoms: _357  and  _360
REMARK  148  A    between atoms: _364  and  _365
REMARK  149  A    between atoms: _370  and  _372
REMARK  150  A    between atoms: _372  and  _373
REMARK  151  A    between atoms: _372  and  _375
REMARK  152  A    between atoms: _375  and  _376
REMARK  153  A    between atoms: _376  and  _377
REMARK  154  A    between atoms: _377  and  _378
REMARK  155  A    between atoms: _378  and  _379
REMARK  156  A    between atoms: _383  and  _385
REMARK  157  A    between atoms: _385  and  _386
REMARK  158  A    between atoms: _385  and  _388
REMARK  159  A    between atoms: _388  and  _389
REMARK  160  A    between atoms: _389  and  _390
REMARK  161  A    between atoms: _392  and  _394
REMARK  162  A    between atoms: _394  and  _395
REMARK  163  A    between atoms: _394  and  _397
REMARK  164  A    between atoms: _397  and  _398
REMARK  165  A    between atoms: _401  and  _403
REMARK  166  A    between atoms: _403  and  _404
REMARK  167  A    between atoms: _406  and  _408
REMARK  168  A    between atoms: _408  and  _409
REMARK  169  A    between atoms: _411  and  _413
REMARK  170  A    between atoms: _413  and  _414
REMARK  171  A    between atoms: _413  and  _416
REMARK  172  A    between atoms: _416  and  _417
REMARK  173  A    between atoms: _420  and  _422
REMARK  174  A    between atoms: _422  and  _423
REMARK  175  A    between atoms: _425  and  _427
REMARK  176  A    between atoms: _427  and  _428
REMARK  177  A    between atoms: _430  and  _432
REMARK  178  A    between atoms: _432  and  _433
REMARK  179  A    between atoms: _432  and  _435
REMARK  180  A    between atoms: _435  and  _436
REMARK  181  A    between atoms: _442  and  _444
REMARK  182  A    between atoms: _444  and  _445
REMARK  183  A    between atoms: _444  and  _447
REMARK  184  A    between atoms: _447  and  _448
REMARK  185  A    between atoms: _451  and  _453
REMARK  186  A    between atoms: _453  and  _454
REMARK  187  A    between atoms: _453  and  _456
REMARK  188  A    between atoms: _459  and  _461
REMARK  189  A    between atoms: _461  and  _462
REMARK  190  A    between atoms: _461  and  _464
REMARK  191  A    between atoms: _464  and  _465
REMARK  192  A    between atoms: _465  and  _466
REMARK  193  A    between atoms: _471  and  _473
REMARK  194  A    between atoms: _473  and  _474
REMARK  195  A    between atoms: _473  and  _476
REMARK  196  A    between atoms: _476  and  _477
REMARK  197  A    between atoms: _481  and  _482
REMARK  198  A    between atoms: _487  and  _489
REMARK  199  A    between atoms: _489  and  _490
REMARK  200  A    between atoms: _489  and  _492
REMARK  201  A    between atoms: _492  and  _493
REMARK  202  A    between atoms: _497  and  _498
REMARK  203  A    between atoms: _503  and  _505
REMARK  204  A    between atoms: _505  and  _506
REMARK  205  A    between atoms: _509  and  _511
REMARK  206  A    between atoms: _511  and  _512
REMARK  207  A    between atoms: _511  and  _514
REMARK  208  A    between atoms: _514  and  _515
REMARK  209  A    between atoms: _520  and  _522
REMARK  210  A    between atoms: _522  and  _523
REMARK  211  A    between atoms: _522  and  _525
REMARK  212  A    between atoms: _525  and  _526
REMARK  213  A    between atoms: _529  and  _531
REMARK  214  A    between atoms: _531  and  _532
REMARK  215  A    between atoms: _531  and  _534
REMARK  216  A    between atoms: _534  and  _535
REMARK  217  A    between atoms: _538  and  _540
REMARK  218  A    between atoms: _540  and  _541
REMARK  219  A    between atoms: _543  and  _545
REMARK  220  A    between atoms: _545  and  _546
REMARK  221  A    between atoms: _545  and  _548
REMARK  222  A    between atoms: _548  and  _549
REMARK  223  A    between atoms: _549  and  _550
REMARK  224  A    between atoms: _550  and  _551
REMARK  225  A    between atoms: _560  and  _562
REMARK  226  A    between atoms: _562  and  _563
REMARK  227  A    between atoms: _562  and  _565
REMARK  228  A    between atoms: _565  and  _566
REMARK                            x       y       z     vdW  Elec       q    Type
REMARK                         _______ _______ _______ _____ _____    ______ ____
ROOT
ATOM      1  O   HOH     1      20.502  33.529  10.622  0.00  0.00    +0.000 OA
ENDROOT
TORSDOF 0
REMARK  Name = ../refined-set-2016/2aoe/2aoe_pocket.pdb
REMARK  228 active torsions:
REMARK  status: ('A' for Active; 'I' for Inactive)
REMARK    1  A    between atoms: _1  and  _3
REMARK    2  A    between atoms: _3  and  _4
REMARK    3  A    between atoms: _3  and  _6
REMARK    4  A    between atoms: _6  and  _7
REMARK    5  A    between atoms: _7  and  _8
REMARK    6  A    between atoms: _8  and  _9
REMARK    7  A    between atoms: _18  and  _20
REMARK    8  A    between atoms: _20  and  _21
REMARK    9  A    between atoms: _20  and  _23
REMARK   10  A    between atoms: _23  and  _24
REMARK   11  A    between atoms: _27  and  _29
REMARK   12  A    between atoms: _29  and  _30
REMARK   13  A    between atoms: _29  and  _32
REMARK   14  A    between atoms: _32  and  _33
REMARK   15  A    between atoms: _36  and  _38
REMARK   16  A    between atoms: _38  and  _39
REMARK   17  A    between atoms: _38  and  _41
REMARK   18  A    between atoms: _41  and  _42
REMARK   19  A    between atoms: _45  and  _47
REMARK   20  A    between atoms: _47  and  _48
REMARK   21  A    between atoms: _50  and  _52
REMARK   22  A    between atoms: _52  and  _53
REMARK   23  A    between atoms: _56  and  _58
REMARK   24  A    between atoms: _58  and  _59
REMARK   25  A    between atoms: _58  and  _61
REMARK   26  A    between atoms: _61  and  _62
REMARK   27  A    between atoms: _65  and  _67
REMARK   28  A    between atoms: _67  and  _68
REMARK   29  A    between atoms: _67  and  _70
REMARK   30  A    between atoms: _70  and  _71
REMARK   31  A    between atoms: _74  and  _76
REMARK   32  A    between atoms: _76  and  _77
REMARK   33  A    between atoms: _76  and  _79
REMARK   34  A    between atoms: _79  and  _80
REMARK   35  A    between atoms: _83  and  _85
REMARK   36  A    between atoms: _85  and  _86
REMARK   37  A    between atoms: _85  and  _88
REMARK   38  A    between atoms: _91  and  _93
REMARK   39  A    between atoms: _93  and  _94
REMARK   40  A    between atoms: _93  and  _96
REMARK   41  A    between atoms: _97  and  _98
REMARK   42  A    between atoms: _98  and  _99
REMARK   43  A    between atoms: _99  and  _100
REMARK   44  A    between atoms: _104  and  _106
REMARK   45  A    between atoms: _106  and  _107
REMARK   46  A    between atoms: _106  and  _109
REMARK   47  A    between atoms: _109  and  _110
REMARK   48  A    between atoms: _110  and  _111
REMARK   49  A    between atoms: _113  and  _115
REMARK   50  A    between atoms: _115  and  _116
REMARK   51  A    between atoms: _115  and  _118
REMARK   52  A    between atoms: _118  and  _119
REMARK   53  A    between atoms: _122  and  _124
REMARK   54  A    between atoms: _124  and  _125
REMARK   55  A    between atoms: _127  and  _129
REMARK   56  A    between atoms: _129  and  _130
REMARK   57  A    between atoms: _132  and  _134
REMARK   58  A    between atoms: _134  and  _135
REMARK   59  A    between atoms: _134  and  _137
REMARK   60  A    between atoms: _137  and  _138
REMARK   61  A    between atoms: _141  and  _143
REMARK   62  A    between atoms: _143  and  _144
REMARK   63  A    between atoms: _146  and  _148
REMARK   64  A    between atoms: _148  and  _149
REMARK   65  A    between atoms: _151  and  _153
REMARK   66  A    between atoms: _153  and  _154
REMARK   67  A    between atoms: _153  and  _156
REMARK   68  A    between atoms: _156  and  _157
REMARK   69  A    between atoms: _163  and  _165
REMARK   70  A    between atoms: _165  and  _166
REMARK   71  A    between atoms: _165  and  _168
REMARK   72  A    between atoms: _168  and  _169
REMARK   73  A    between atoms: _172  and  _174
REMARK   74  A    between atoms: _174  and  _175
REMARK   75  A    between atoms: _174  and  _177
REMARK   76  A    between atoms: _180  and  _182
REMARK   77  A    between atoms: _182  and  _183
REMARK   78  A    between atoms: _182  and  _185
REMARK   79  A    between atoms: _185  and  _186
REMARK   80  A    between atoms: _189  and  _191
REMARK   81  A    between atoms: _191  and  _192
REMARK   82  A    between atoms: _191  and  _194
REMARK   83  A    between atoms: _194  and  _195
REMARK   84  A    between atoms: _199  and  _200
REMARK   85  A    between atoms: _205  and  _207
REMARK   86  A    between atoms: _207  and  _208
REMARK   87  A    between atoms: _211  and  _213
REMARK   88  A    between atoms: _213  and  _214
REMARK   89  A    between atoms: _213  and  _216
REMARK   90  A    between atoms: _216  and  _217
REMARK   91  A    between atoms: _222  and  _224
REMARK   92  A    between atoms: _224  and  _225
REMARK   93  A    between atoms: _224  and  _227
REMARK   94  A    between atoms: _227  and  _228
REMARK   95  A    between atoms: _231  and  _233
REMARK   96  A    between atoms: _233  and  _234
REMARK   97  A    between atoms: _233  and  _236
REMARK   98  A    between atoms: _236  and  _237
REMARK   99  A    between atoms: _240  and  _242
REMARK  100  A    between atoms: _242  and  _243
REMARK  101  A    between atoms: _245  and  _247
REMARK  102  A    between atoms: _247  and  _248
REMARK  103  A    between atoms: _247  and  _250
REMARK  104  A    between atoms: _250  and  _251
REMARK  105  A    between atoms: _251  and  _252
REMARK  106  A    between atoms: _252  and  _253
REMARK  107  A    between atoms: _262  and  _264
REMARK  108  A    between atoms: _264  and  _265
REMARK  109  A    between atoms: _264  and  _267
REMARK  110  A    between atoms: _267  and  _268
REMARK  111  A    between atoms: _273  and  _275
REMARK  112  A    between atoms: _275  and  _276
REMARK  113  A    between atoms: _275  and  _278
REMARK  114  A    between atoms: _278  and  _279
REMARK  115  A    between atoms: _279  and  _280
REMARK  116  A    between atoms: _280  and  _281
REMARK  117  A    between atoms: _290  and  _292
REMARK  118  A    between atoms: _292  and  _293
REMARK  119  A    between atoms: _292  and  _295
REMARK  120  A    between atoms: _295  and  _296
REMARK  121  A    between atoms: _299  and  _301
REMARK  122  A    between atoms: _301  and  _302
REMARK  123  A    between atoms: _301  and  _304
REMARK  124  A    between atoms: _304  and  _305
REMARK  125  A    between atoms: _308  and  _310
REMARK  126  A    between atoms: _310  and  _311
REMARK  127  A    between atoms: _310  and  _313
REMARK  128  A    between atoms: _313  and  _314
REMARK  129  A    between atoms: _317  and  _319
REMARK  130  A    between atoms: _319  and  _320
REMARK  131  A    between atoms: _322  and  _324
REMARK  132  A    between atoms: _324  and  _325
REMARK  133  A    between atoms: _328  and  _330
REMARK  134  A    between atoms: _330  and  _331
REMARK  135  A    between atoms: _330  and  _333
REMARK  136  A    between atoms: _333  and  _334
REMARK  137  A    between atoms: _337  and  _339
REMARK  138  A    between atoms: _339  and  _340
REMARK  139  A    between atoms: _339  and  _342
REMARK  140  A    between atoms: _342  and  _343
REMARK  141  A    between atoms: _346  and  _348
REMARK  142  A    between atoms: _348  and  _349
REMARK  143  A    between atoms: _348  and  _351
REMARK  144  A    between atoms: _351  and  _352
REMARK  145  A    between atoms: _355  and  _357
REMARK  146  A    between atoms: _357  and  _358
REMARK  147  A    between atoms: _357  and  _360
REMARK  148  A    between atoms: _364  and  _365
REMARK  149  A    between atoms: _370  and  _372
REMARK  150  A    between atoms: _372  and  _373
REMARK  151  A    between atoms: _372  and  _375
REMARK  152  A    between atoms: _375  and  _376
REMARK  153  A    between atoms: _376  and  _377
REMARK  154  A    between atoms: _377  and  _378
REMARK  155  A    between atoms: _378  and  _379
REMARK  156  A    between atoms: _383  and  _385
REMARK  157  A    between atoms: _385  and  _386
REMARK  158  A    between atoms: _385  and  _388
REMARK  159  A    between atoms: _388  and  _389
REMARK  160  A    between atoms: _389  and  _390
REMARK  161  A    between atoms: _392  and  _394
REMARK  162  A    between atoms: _394  and  _395
REMARK  163  A    between atoms: _394  and  _397
REMARK  164  A    between atoms: _397  and  _398
REMARK  165  A    between atoms: _401  and  _403
REMARK  166  A    between atoms: _403  and  _404
REMARK  167  A    between atoms: _406  and  _408
REMARK  168  A    between atoms: _408  and  _409
REMARK  169  A    between atoms: _411  and  _413
REMARK  170  A    between atoms: _413  and  _414
REMARK  171  A    between atoms: _413  and  _416
REMARK  172  A    between atoms: _416  and  _417
REMARK  173  A    between atoms: _420  and  _422
REMARK  174  A    between atoms: _422  and  _423
REMARK  175  A    between atoms: _425  and  _427
REMARK  176  A    between atoms: _427  and  _428
REMARK  177  A    between atoms: _430  and  _432
REMARK  178  A    between atoms: _432  and  _433
REMARK  179  A    between atoms: _432  and  _435
REMARK  180  A    between atoms: _435  and  _436
REMARK  181  A    between atoms: _442  and  _444
REMARK  182  A    between atoms: _444  and  _445
REMARK  183  A    between atoms: _444  and  _447
REMARK  184  A    between atoms: _447  and  _448
REMARK  185  A    between atoms: _451  and  _453
REMARK  186  A    between atoms: _453  and  _454
REMARK  187  A    between atoms: _453  and  _456
REMARK  188  A    between atoms: _459  and  _461
REMARK  189  A    between atoms: _461  and  _462
REMARK  190  A    between atoms: _461  and  _464
REMARK  191  A    between atoms: _464  and  _465
REMARK  192  A    between atoms: _465  and  _466
REMARK  193  A    between atoms: _471  and  _473
REMARK  194  A    between atoms: _473  and  _474
REMARK  195  A    between atoms: _473  and  _476
REMARK  196  A    between atoms: _476  and  _477
REMARK  197  A    between atoms: _481  and  _482
REMARK  198  A    between atoms: _487  and  _489
REMARK  199  A    between atoms: _489  and  _490
REMARK  200  A    between atoms: _489  and  _492
REMARK  201  A    between atoms: _492  and  _493
REMARK  202  A    between atoms: _497  and  _498
REMARK  203  A    between atoms: _503  and  _505
REMARK  204  A    between atoms: _505  and  _506
REMARK  205  A    between atoms: _509  and  _511
REMARK  206  A    between atoms: _511  and  _512
REMARK  207  A    between atoms: _511  and  _514
REMARK  208  A    between atoms: _514  and  _515
REMARK  209  A    between atoms: _520  and  _522
REMARK  210  A    between atoms: _522  and  _523
REMARK  211  A    between atoms: _522  and  _525
REMARK  212  A    between atoms: _525  and  _526
REMARK  213  A    between atoms: _529  and  _531
REMARK  214  A    between atoms: _531  and  _532
REMARK  215  A    between atoms: _531  and  _534
REMARK  216  A    between atoms: _534  and  _535
REMARK  217  A    between atoms: _538  and  _540
REMARK  218  A    between atoms: _540  and  _541
REMARK  219  A    between atoms: _543  and  _545
REMARK  220  A    between atoms: _545  and  _546
REMARK  221  A    between atoms: _545  and  _548
REMARK  222  A    between atoms: _548  and  _549
REMARK  223  A    between atoms: _549  and  _550
REMARK  224  A    between atoms: _550  and  _551
REMARK  225  A    between atoms: _560  and  _562
REMARK  226  A    between atoms: _562  and  _563
REMARK  227  A    between atoms: _562  and  _565
REMARK  228  A    between atoms: _565  and  _566
REMARK                            x       y       z     vdW  Elec       q    Type
REMARK                         _______ _______ _______ _____ _____    ______ ____
ROOT
ATOM      1  O   HOH     1      21.295  35.434  17.337  0.00  0.00    +0.000 OA
ENDROOT
TORSDOF 0
REMARK  Name = ../refined-set-2016/2aoe/2aoe_pocket.pdb
REMARK  228 active torsions:
REMARK  status: ('A' for Active; 'I' for Inactive)
REMARK    1  A    between atoms: _1  and  _3
REMARK    2  A    between atoms: _3  and  _4
REMARK    3  A    between atoms: _3  and  _6
REMARK    4  A    between atoms: _6  and  _7
REMARK    5  A    between atoms: _7  and  _8
REMARK    6  A    between atoms: _8  and  _9
REMARK    7  A    between atoms: _18  and  _20
REMARK    8  A    between atoms: _20  and  _21
REMARK    9  A    between atoms: _20  and  _23
REMARK   10  A    between atoms: _23  and  _24
REMARK   11  A    between atoms: _27  and  _29
REMARK   12  A    between atoms: _29  and  _30
REMARK   13  A    between atoms: _29  and  _32
REMARK   14  A    between atoms: _32  and  _33
REMARK   15  A    between atoms: _36  and  _38
REMARK   16  A    between atoms: _38  and  _39
REMARK   17  A    between atoms: _38  and  _41
REMARK   18  A    between atoms: _41  and  _42
REMARK   19  A    between atoms: _45  and  _47
REMARK   20  A    between atoms: _47  and  _48
REMARK   21  A    between atoms: _50  and  _52
REMARK   22  A    between atoms: _52  and  _53
REMARK   23  A    between atoms: _56  and  _58
REMARK   24  A    between atoms: _58  and  _59
REMARK   25  A    between atoms: _58  and  _61
REMARK   26  A    between atoms: _61  and  _62
REMARK   27  A    between atoms: _65  and  _67
REMARK   28  A    between atoms: _67  and  _68
REMARK   29  A    between atoms: _67  and  _70
REMARK   30  A    between atoms: _70  and  _71
REMARK   31  A    between atoms: _74  and  _76
REMARK   32  A    between atoms: _76  and  _77
REMARK   33  A    between atoms: _76  and  _79
REMARK   34  A    between atoms: _79  and  _80
REMARK   35  A    between atoms: _83  and  _85
REMARK   36  A    between atoms: _85  and  _86
REMARK   37  A    between atoms: _85  and  _88
REMARK   38  A    between atoms: _91  and  _93
REMARK   39  A    between atoms: _93  and  _94
REMARK   40  A    between atoms: _93  and  _96
REMARK   41  A    between atoms: _97  and  _98
REMARK   42  A    between atoms: _98  and  _99
REMARK   43  A    between atoms: _99  and  _100
REMARK   44  A    between atoms: _104  and  _106
REMARK   45  A    between atoms: _106  and  _107
REMARK   46  A    between atoms: _106  and  _109
REMARK   47  A    between atoms: _109  and  _110
REMARK   48  A    between atoms: _110  and  _111
REMARK   49  A    between atoms: _113  and  _115
REMARK   50  A    between atoms: _115  and  _116
REMARK   51  A    between atoms: _115  and  _118
REMARK   52  A    between atoms: _118  and  _119
REMARK   53  A    between atoms: _122  and  _124
REMARK   54  A    between atoms: _124  and  _125
REMARK   55  A    between atoms: _127  and  _129
REMARK   56  A    between atoms: _129  and  _130
REMARK   57  A    between atoms: _132  and  _134
REMARK   58  A    between atoms: _134  and  _135
REMARK   59  A    between atoms: _134  and  _137
REMARK   60  A    between atoms: _137  and  _138
REMARK   61  A    between atoms: _141  and  _143
REMARK   62  A    between atoms: _143  and  _144
REMARK   63  A    between atoms: _146  and  _148
REMARK   64  A    between atoms: _148  and  _149
REMARK   65  A    between atoms: _151  and  _153
REMARK   66  A    between atoms: _153  and  _154
REMARK   67  A    between atoms: _153  and  _156
REMARK   68  A    between atoms: _156  and  _157
REMARK   69  A    between atoms: _163  and  _165
REMARK   70  A    between atoms: _165  and  _166
REMARK   71  A    between atoms: _165  and  _168
REMARK   72  A    between atoms: _168  and  _169
REMARK   73  A    between atoms: _172  and  _174
REMARK   74  A    between atoms: _174  and  _175
REMARK   75  A    between atoms: _174  and  _177
REMARK   76  A    between atoms: _180  and  _182
REMARK   77  A    between atoms: _182  and  _183
REMARK   78  A    between atoms: _182  and  _185
REMARK   79  A    between atoms: _185  and  _186
REMARK   80  A    between atoms: _189  and  _191
REMARK   81  A    between atoms: _191  and  _192
REMARK   82  A    between atoms: _191  and  _194
REMARK   83  A    between atoms: _194  and  _195
REMARK   84  A    between atoms: _199  and  _200
REMARK   85  A    between atoms: _205  and  _207
REMARK   86  A    between atoms: _207  and  _208
REMARK   87  A    between atoms: _211  and  _213
REMARK   88  A    between atoms: _213  and  _214
REMARK   89  A    between atoms: _213  and  _216
REMARK   90  A    between atoms: _216  and  _217
REMARK   91  A    between atoms: _222  and  _224
REMARK   92  A    between atoms: _224  and  _225
REMARK   93  A    between atoms: _224  and  _227
REMARK   94  A    between atoms: _227  and  _228
REMARK   95  A    between atoms: _231  and  _233
REMARK   96  A    between atoms: _233  and  _234
REMARK   97  A    between atoms: _233  and  _236
REMARK   98  A    between atoms: _236  and  _237
REMARK   99  A    between atoms: _240  and  _242
REMARK  100  A    between atoms: _242  and  _243
REMARK  101  A    between atoms: _245  and  _247
REMARK  102  A    between atoms: _247  and  _248
REMARK  103  A    between atoms: _247  and  _250
REMARK  104  A    between atoms: _250  and  _251
REMARK  105  A    between atoms: _251  and  _252
REMARK  106  A    between atoms: _252  and  _253
REMARK  107  A    between atoms: _262  and  _264
REMARK  108  A    between atoms: _264  and  _265
REMARK  109  A    between atoms: _264  and  _267
REMARK  110  A    between atoms: _267  and  _268
REMARK  111  A    between atoms: _273  and  _275
REMARK  112  A    between atoms: _275  and  _276
REMARK  113  A    between atoms: _275  and  _278
REMARK  114  A    between atoms: _278  and  _279
REMARK  115  A    between atoms: _279  and  _280
REMARK  116  A    between atoms: _280  and  _281
REMARK  117  A    between atoms: _290  and  _292
REMARK  118  A    between atoms: _292  and  _293
REMARK  119  A    between atoms: _292  and  _295
REMARK  120  A    between atoms: _295  and  _296
REMARK  121  A    between atoms: _299  and  _301
REMARK  122  A    between atoms: _301  and  _302
REMARK  123  A    between atoms: _301  and  _304
REMARK  124  A    between atoms: _304  and  _305
REMARK  125  A    between atoms: _308  and  _310
REMARK  126  A    between atoms: _310  and  _311
REMARK  127  A    between atoms: _310  and  _313
REMARK  128  A    between atoms: _313  and  _314
REMARK  129  A    between atoms: _317  and  _319
REMARK  130  A    between atoms: _319  and  _320
REMARK  131  A    between atoms: _322  and  _324
REMARK  132  A    between atoms: _324  and  _325
REMARK  133  A    between atoms: _328  and  _330
REMARK  134  A    between atoms: _330  and  _331
REMARK  135  A    between atoms: _330  and  _333
REMARK  136  A    between atoms: _333  and  _334
REMARK  137  A    between atoms: _337  and  _339
REMARK  138  A    between atoms: _339  and  _340
REMARK  139  A    between atoms: _339  and  _342
REMARK  140  A    between atoms: _342  and  _343
REMARK  141  A    between atoms: _346  and  _348
REMARK  142  A    between atoms: _348  and  _349
REMARK  143  A    between atoms: _348  and  _351
REMARK  144  A    between atoms: _351  and  _352
REMARK  145  A    between atoms: _355  and  _357
REMARK  146  A    between atoms: _357  and  _358
REMARK  147  A    between atoms: _357  and  _360
REMARK  148  A    between atoms: _364  and  _365
REMARK  149  A    between atoms: _370  and  _372
REMARK  150  A    between atoms: _372  and  _373
REMARK  151  A    between atoms: _372  and  _375
REMARK  152  A    between atoms: _375  and  _376
REMARK  153  A    between atoms: _376  and  _377
REMARK  154  A    between atoms: _377  and  _378
REMARK  155  A    between atoms: _378  and  _379
REMARK  156  A    between atoms: _383  and  _385
REMARK  157  A    between atoms: _385  and  _386
REMARK  158  A    between atoms: _385  and  _388
REMARK  159  A    between atoms: _388  and  _389
REMARK  160  A    between atoms: _389  and  _390
REMARK  161  A    between atoms: _392  and  _394
REMARK  162  A    between atoms: _394  and  _395
REMARK  163  A    between atoms: _394  and  _397
REMARK  164  A    between atoms: _397  and  _398
REMARK  165  A    between atoms: _401  and  _403
REMARK  166  A    between atoms: _403  and  _404
REMARK  167  A    between atoms: _406  and  _408
REMARK  168  A    between atoms: _408  and  _409
REMARK  169  A    between atoms: _411  and  _413
REMARK  170  A    between atoms: _413  and  _414
REMARK  171  A    between atoms: _413  and  _416
REMARK  172  A    between atoms: _416  and  _417
REMARK  173  A    between atoms: _420  and  _422
REMARK  174  A    between atoms: _422  and  _423
REMARK  175  A    between atoms: _425  and  _427
REMARK  176  A    between atoms: _427  and  _428
REMARK  177  A    between atoms: _430  and  _432
REMARK  178  A    between atoms: _432  and  _433
REMARK  179  A    between atoms: _432  and  _435
REMARK  180  A    between atoms: _435  and  _436
REMARK  181  A    between atoms: _442  and  _444
REMARK  182  A    between atoms: _444  and  _445
REMARK  183  A    between atoms: _444  and  _447
REMARK  184  A    between atoms: _447  and  _448
REMARK  185  A    between atoms: _451  and  _453
REMARK  186  A    between atoms: _453  and  _454
REMARK  187  A    between atoms: _453  and  _456
REMARK  188  A    between atoms: _459  and  _461
REMARK  189  A    between atoms: _461  and  _462
REMARK  190  A    between atoms: _461  and  _464
REMARK  191  A    between atoms: _464  and  _465
REMARK  192  A    between atoms: _465  and  _466
REMARK  193  A    between atoms: _471  and  _473
REMARK  194  A    between atoms: _473  and  _474
REMARK  195  A    between atoms: _473  and  _476
REMARK  196  A    between atoms: _476  and  _477
REMARK  197  A    between atoms: _481  and  _482
REMARK  198  A    between atoms: _487  and  _489
REMARK  199  A    between atoms: _489  and  _490
REMARK  200  A    between atoms: _489  and  _492
REMARK  201  A    between atoms: _492  and  _493
REMARK  202  A    between atoms: _497  and  _498
REMARK  203  A    between atoms: _503  and  _505
REMARK  204  A    between atoms: _505  and  _506
REMARK  205  A    between atoms: _509  and  _511
REMARK  206  A    between atoms: _511  and  _512
REMARK  207  A    between atoms: _511  and  _514
REMARK  208  A    between atoms: _514  and  _515
REMARK  209  A    between atoms: _520  and  _522
REMARK  210  A    between atoms: _522  and  _523
REMARK  211  A    between atoms: _522  and  _525
REMARK  212  A    between atoms: _525  and  _526
REMARK  213  A    between atoms: _529  and  _531
REMARK  214  A    between atoms: _531  and  _532
REMARK  215  A    between atoms: _531  and  _534
REMARK  216  A    between atoms: _534  and  _535
REMARK  217  A    between atoms: _538  and  _540
REMARK  218  A    between atoms: _540  and  _541
REMARK  219  A    between atoms: _543  and  _545
REMARK  220  A    between atoms: _545  and  _546
REMARK  221  A    between atoms: _545  and  _548
REMARK  222  A    between atoms: _548  and  _549
REMARK  223  A    between atoms: _549  and  _550
REMARK  224  A    between atoms: _550  and  _551
REMARK  225  A    between atoms: _560  and  _562
REMARK  226  A    between atoms: _562  and  _563
REMARK  227  A    between atoms: _562  and  _565
REMARK  228  A    between atoms: _565  and  _566
REMARK                            x       y       z     vdW  Elec       q    Type
REMARK                         _______ _______ _______ _____ _____    ______ ____
ROOT
ATOM      1  O   HOH     1       1.221  21.334  16.079  0.00  0.00    +0.000 OA
ENDROOT
TORSDOF 0
REMARK  Name = ../refined-set-2016/2aoe/2aoe_pocket.pdb
REMARK  228 active torsions:
REMARK  status: ('A' for Active; 'I' for Inactive)
REMARK    1  A    between atoms: _1  and  _3
REMARK    2  A    between atoms: _3  and  _4
REMARK    3  A    between atoms: _3  and  _6
REMARK    4  A    between atoms: _6  and  _7
REMARK    5  A    between atoms: _7  and  _8
REMARK    6  A    between atoms: _8  and  _9
REMARK    7  A    between atoms: _18  and  _20
REMARK    8  A    between atoms: _20  and  _21
REMARK    9  A    between atoms: _20  and  _23
REMARK   10  A    between atoms: _23  and  _24
REMARK   11  A    between atoms: _27  and  _29
REMARK   12  A    between atoms: _29  and  _30
REMARK   13  A    between atoms: _29  and  _32
REMARK   14  A    between atoms: _32  and  _33
REMARK   15  A    between atoms: _36  and  _38
REMARK   16  A    between atoms: _38  and  _39
REMARK   17  A    between atoms: _38  and  _41
REMARK   18  A    between atoms: _41  and  _42
REMARK   19  A    between atoms: _45  and  _47
REMARK   20  A    between atoms: _47  and  _48
REMARK   21  A    between atoms: _50  and  _52
REMARK   22  A    between atoms: _52  and  _53
REMARK   23  A    between atoms: _56  and  _58
REMARK   24  A    between atoms: _58  and  _59
REMARK   25  A    between atoms: _58  and  _61
REMARK   26  A    between atoms: _61  and  _62
REMARK   27  A    between atoms: _65  and  _67
REMARK   28  A    between atoms: _67  and  _68
REMARK   29  A    between atoms: _67  and  _70
REMARK   30  A    between atoms: _70  and  _71
REMARK   31  A    between atoms: _74  and  _76
REMARK   32  A    between atoms: _76  and  _77
REMARK   33  A    between atoms: _76  and  _79
REMARK   34  A    between atoms: _79  and  _80
REMARK   35  A    between atoms: _83  and  _85
REMARK   36  A    between atoms: _85  and  _86
REMARK   37  A    between atoms: _85  and  _88
REMARK   38  A    between atoms: _91  and  _93
REMARK   39  A    between atoms: _93  and  _94
REMARK   40  A    between atoms: _93  and  _96
REMARK   41  A    between atoms: _97  and  _98
REMARK   42  A    between atoms: _98  and  _99
REMARK   43  A    between atoms: _99  and  _100
REMARK   44  A    between atoms: _104  and  _106
REMARK   45  A    between atoms: _106  and  _107
REMARK   46  A    between atoms: _106  and  _109
REMARK   47  A    between atoms: _109  and  _110
REMARK   48  A    between atoms: _110  and  _111
REMARK   49  A    between atoms: _113  and  _115
REMARK   50  A    between atoms: _115  and  _116
REMARK   51  A    between atoms: _115  and  _118
REMARK   52  A    between atoms: _118  and  _119
REMARK   53  A    between atoms: _122  and  _124
REMARK   54  A    between atoms: _124  and  _125
REMARK   55  A    between atoms: _127  and  _129
REMARK   56  A    between atoms: _129  and  _130
REMARK   57  A    between atoms: _132  and  _134
REMARK   58  A    between atoms: _134  and  _135
REMARK   59  A    between atoms: _134  and  _137
REMARK   60  A    between atoms: _137  and  _138
REMARK   61  A    between atoms: _141  and  _143
REMARK   62  A    between atoms: _143  and  _144
REMARK   63  A    between atoms: _146  and  _148
REMARK   64  A    between atoms: _148  and  _149
REMARK   65  A    between atoms: _151  and  _153
REMARK   66  A    between atoms: _153  and  _154
REMARK   67  A    between atoms: _153  and  _156
REMARK   68  A    between atoms: _156  and  _157
REMARK   69  A    between atoms: _163  and  _165
REMARK   70  A    between atoms: _165  and  _166
REMARK   71  A    between atoms: _165  and  _168
REMARK   72  A    between atoms: _168  and  _169
REMARK   73  A    between atoms: _172  and  _174
REMARK   74  A    between atoms: _174  and  _175
REMARK   75  A    between atoms: _174  and  _177
REMARK   76  A    between atoms: _180  and  _182
REMARK   77  A    between atoms: _182  and  _183
REMARK   78  A    between atoms: _182  and  _185
REMARK   79  A    between atoms: _185  and  _186
REMARK   80  A    between atoms: _189  and  _191
REMARK   81  A    between atoms: _191  and  _192
REMARK   82  A    between atoms: _191  and  _194
REMARK   83  A    between atoms: _194  and  _195
REMARK   84  A    between atoms: _199  and  _200
REMARK   85  A    between atoms: _205  and  _207
REMARK   86  A    between atoms: _207  and  _208
REMARK   87  A    between atoms: _211  and  _213
REMARK   88  A    between atoms: _213  and  _214
REMARK   89  A    between atoms: _213  and  _216
REMARK   90  A    between atoms: _216  and  _217
REMARK   91  A    between atoms: _222  and  _224
REMARK   92  A    between atoms: _224  and  _225
REMARK   93  A    between atoms: _224  and  _227
REMARK   94  A    between atoms: _227  and  _228
REMARK   95  A    between atoms: _231  and  _233
REMARK   96  A    between atoms: _233  and  _234
REMARK   97  A    between atoms: _233  and  _236
REMARK   98  A    between atoms: _236  and  _237
REMARK   99  A    between atoms: _240  and  _242
REMARK  100  A    between atoms: _242  and  _243
REMARK  101  A    between atoms: _245  and  _247
REMARK  102  A    between atoms: _247  and  _248
REMARK  103  A    between atoms: _247  and  _250
REMARK  104  A    between atoms: _250  and  _251
REMARK  105  A    between atoms: _251  and  _252
REMARK  106  A    between atoms: _252  and  _253
REMARK  107  A    between atoms: _262  and  _264
REMARK  108  A    between atoms: _264  and  _265
REMARK  109  A    between atoms: _264  and  _267
REMARK  110  A    between atoms: _267  and  _268
REMARK  111  A    between atoms: _273  and  _275
REMARK  112  A    between atoms: _275  and  _276
REMARK  113  A    between atoms: _275  and  _278
REMARK  114  A    between atoms: _278  and  _279
REMARK  115  A    between atoms: _279  and  _280
REMARK  116  A    between atoms: _280  and  _281
REMARK  117  A    between atoms: _290  and  _292
REMARK  118  A    between atoms: _292  and  _293
REMARK  119  A    between atoms: _292  and  _295
REMARK  120  A    between atoms: _295  and  _296
REMARK  121  A    between atoms: _299  and  _301
REMARK  122  A    between atoms: _301  and  _302
REMARK  123  A    between atoms: _301  and  _304
REMARK  124  A    between atoms: _304  and  _305
REMARK  125  A    between atoms: _308  and  _310
REMARK  126  A    between atoms: _310  and  _311
REMARK  127  A    between atoms: _310  and  _313
REMARK  128  A    between atoms: _313  and  _314
REMARK  129  A    between atoms: _317  and  _319
REMARK  130  A    between atoms: _319  and  _320
REMARK  131  A    between atoms: _322  and  _324
REMARK  132  A    between atoms: _324  and  _325
REMARK  133  A    between atoms: _328  and  _330
REMARK  134  A    between atoms: _330  and  _331
REMARK  135  A    between atoms: _330  and  _333
REMARK  136  A    between atoms: _333  and  _334
REMARK  137  A    between atoms: _337  and  _339
REMARK  138  A    between atoms: _339  and  _340
REMARK  139  A    between atoms: _339  and  _342
REMARK  140  A    between atoms: _342  and  _343
REMARK  141  A    between atoms: _346  and  _348
REMARK  142  A    between atoms: _348  and  _349
REMARK  143  A    between atoms: _348  and  _351
REMARK  144  A    between atoms: _351  and  _352
REMARK  145  A    between atoms: _355  and  _357
REMARK  146  A    between atoms: _357  and  _358
REMARK  147  A    between atoms: _357  and  _360
REMARK  148  A    between atoms: _364  and  _365
REMARK  149  A    between atoms: _370  and  _372
REMARK  150  A    between atoms: _372  and  _373
REMARK  151  A    between atoms: _372  and  _375
REMARK  152  A    between atoms: _375  and  _376
REMARK  153  A    between atoms: _376  and  _377
REMARK  154  A    between atoms: _377  and  _378
REMARK  155  A    between atoms: _378  and  _379
REMARK  156  A    between atoms: _383  and  _385
REMARK  157  A    between atoms: _385  and  _386
REMARK  158  A    between atoms: _385  and  _388
REMARK  159  A    between atoms: _388  and  _389
REMARK  160  A    between atoms: _389  and  _390
REMARK  161  A    between atoms: _392  and  _394
REMARK  162  A    between atoms: _394  and  _395
REMARK  163  A    between atoms: _394  and  _397
REMARK  164  A    between atoms: _397  and  _398
REMARK  165  A    between atoms: _401  and  _403
REMARK  166  A    between atoms: _403  and  _404
REMARK  167  A    between atoms: _406  and  _408
REMARK  168  A    between atoms: _408  and  _409
REMARK  169  A    between atoms: _411  and  _413
REMARK  170  A    between atoms: _413  and  _414
REMARK  171  A    between atoms: _413  and  _416
REMARK  172  A    between atoms: _416  and  _417
REMARK  173  A    between atoms: _420  and  _422
REMARK  174  A    between atoms: _422  and  _423
REMARK  175  A    between atoms: _425  and  _427
REMARK  176  A    between atoms: _427  and  _428
REMARK  177  A    between atoms: _430  and  _432
REMARK  178  A    between atoms: _432  and  _433
REMARK  179  A    between atoms: _432  and  _435
REMARK  180  A    between atoms: _435  and  _436
REMARK  181  A    between atoms: _442  and  _444
REMARK  182  A    between atoms: _444  and  _445
REMARK  183  A    between atoms: _444  and  _447
REMARK  184  A    between atoms: _447  and  _448
REMARK  185  A    between atoms: _451  and  _453
REMARK  186  A    between atoms: _453  and  _454
REMARK  187  A    between atoms: _453  and  _456
REMARK  188  A    between atoms: _459  and  _461
REMARK  189  A    between atoms: _461  and  _462
REMARK  190  A    between atoms: _461  and  _464
REMARK  191  A    between atoms: _464  and  _465
REMARK  192  A    between atoms: _465  and  _466
REMARK  193  A    between atoms: _471  and  _473
REMARK  194  A    between atoms: _473  and  _474
REMARK  195  A    between atoms: _473  and  _476
REMARK  196  A    between atoms: _476  and  _477
REMARK  197  A    between atoms: _481  and  _482
REMARK  198  A    between atoms: _487  and  _489
REMARK  199  A    between atoms: _489  and  _490
REMARK  200  A    between atoms: _489  and  _492
REMARK  201  A    between atoms: _492  and  _493
REMARK  202  A    between atoms: _497  and  _498
REMARK  203  A    between atoms: _503  and  _505
REMARK  204  A    between atoms: _505  and  _506
REMARK  205  A    between atoms: _509  and  _511
REMARK  206  A    between atoms: _511  and  _512
REMARK  207  A    between atoms: _511  and  _514
REMARK  208  A    between atoms: _514  and  _515
REMARK  209  A    between atoms: _520  and  _522
REMARK  210  A    between atoms: _522  and  _523
REMARK  211  A    between atoms: _522  and  _525
REMARK  212  A    between atoms: _525  and  _526
REMARK  213  A    between atoms: _529  and  _531
REMARK  214  A    between atoms: _531  and  _532
REMARK  215  A    between atoms: _531  and  _534
REMARK  216  A    between atoms: _534  and  _535
REMARK  217  A    between atoms: _538  and  _540
REMARK  218  A    between atoms: _540  and  _541
REMARK  219  A    between atoms: _543  and  _545
REMARK  220  A    between atoms: _545  and  _546
REMARK  221  A    between atoms: _545  and  _548
REMARK  222  A    between atoms: _548  and  _549
REMARK  223  A    between atoms: _549  and  _550
REMARK  224  A    between atoms: _550  and  _551
REMARK  225  A    between atoms: _560  and  _562
REMARK  226  A    between atoms: _562  and  _563
REMARK  227  A    between atoms: _562  and  _565
REMARK  228  A    between atoms: _565  and  _566
REMARK                            x       y       z     vdW  Elec       q    Type
REMARK                         _______ _______ _______ _____ _____    ______ ____
ROOT
ATOM      1  O   HOH     1      19.986  28.642  20.996  0.00  0.00    +0.000 OA
ENDROOT
TORSDOF 0
REMARK  Name = ../refined-set-2016/2aoe/2aoe_pocket.pdb
REMARK  228 active torsions:
REMARK  status: ('A' for Active; 'I' for Inactive)
REMARK    1  A    between atoms: _1  and  _3
REMARK    2  A    between atoms: _3  and  _4
REMARK    3  A    between atoms: _3  and  _6
REMARK    4  A    between atoms: _6  and  _7
REMARK    5  A    between atoms: _7  and  _8
REMARK    6  A    between atoms: _8  and  _9
REMARK    7  A    between atoms: _18  and  _20
REMARK    8  A    between atoms: _20  and  _21
REMARK    9  A    between atoms: _20  and  _23
REMARK   10  A    between atoms: _23  and  _24
REMARK   11  A    between atoms: _27  and  _29
REMARK   12  A    between atoms: _29  and  _30
REMARK   13  A    between atoms: _29  and  _32
REMARK   14  A    between atoms: _32  and  _33
REMARK   15  A    between atoms: _36  and  _38
REMARK   16  A    between atoms: _38  and  _39
REMARK   17  A    between atoms: _38  and  _41
REMARK   18  A    between atoms: _41  and  _42
REMARK   19  A    between atoms: _45  and  _47
REMARK   20  A    between atoms: _47  and  _48
REMARK   21  A    between atoms: _50  and  _52
REMARK   22  A    between atoms: _52  and  _53
REMARK   23  A    between atoms: _56  and  _58
REMARK   24  A    between atoms: _58  and  _59
REMARK   25  A    between atoms: _58  and  _61
REMARK   26  A    between atoms: _61  and  _62
REMARK   27  A    between atoms: _65  and  _67
REMARK   28  A    between atoms: _67  and  _68
REMARK   29  A    between atoms: _67  and  _70
REMARK   30  A    between atoms: _70  and  _71
REMARK   31  A    between atoms: _74  and  _76
REMARK   32  A    between atoms: _76  and  _77
REMARK   33  A    between atoms: _76  and  _79
REMARK   34  A    between atoms: _79  and  _80
REMARK   35  A    between atoms: _83  and  _85
REMARK   36  A    between atoms: _85  and  _86
REMARK   37  A    between atoms: _85  and  _88
REMARK   38  A    between atoms: _91  and  _93
REMARK   39  A    between atoms: _93  and  _94
REMARK   40  A    between atoms: _93  and  _96
REMARK   41  A    between atoms: _97  and  _98
REMARK   42  A    between atoms: _98  and  _99
REMARK   43  A    between atoms: _99  and  _100
REMARK   44  A    between atoms: _104  and  _106
REMARK   45  A    between atoms: _106  and  _107
REMARK   46  A    between atoms: _106  and  _109
REMARK   47  A    between atoms: _109  and  _110
REMARK   48  A    between atoms: _110  and  _111
REMARK   49  A    between atoms: _113  and  _115
REMARK   50  A    between atoms: _115  and  _116
REMARK   51  A    between atoms: _115  and  _118
REMARK   52  A    between atoms: _118  and  _119
REMARK   53  A    between atoms: _122  and  _124
REMARK   54  A    between atoms: _124  and  _125
REMARK   55  A    between atoms: _127  and  _129
REMARK   56  A    between atoms: _129  and  _130
REMARK   57  A    between atoms: _132  and  _134
REMARK   58  A    between atoms: _134  and  _135
REMARK   59  A    between atoms: _134  and  _137
REMARK   60  A    between atoms: _137  and  _138
REMARK   61  A    between atoms: _141  and  _143
REMARK   62  A    between atoms: _143  and  _144
REMARK   63  A    between atoms: _146  and  _148
REMARK   64  A    between atoms: _148  and  _149
REMARK   65  A    between atoms: _151  and  _153
REMARK   66  A    between atoms: _153  and  _154
REMARK   67  A    between atoms: _153  and  _156
REMARK   68  A    between atoms: _156  and  _157
REMARK   69  A    between atoms: _163  and  _165
REMARK   70  A    between atoms: _165  and  _166
REMARK   71  A    between atoms: _165  and  _168
REMARK   72  A    between atoms: _168  and  _169
REMARK   73  A    between atoms: _172  and  _174
REMARK   74  A    between atoms: _174  and  _175
REMARK   75  A    between atoms: _174  and  _177
REMARK   76  A    between atoms: _180  and  _182
REMARK   77  A    between atoms: _182  and  _183
REMARK   78  A    between atoms: _182  and  _185
REMARK   79  A    between atoms: _185  and  _186
REMARK   80  A    between atoms: _189  and  _191
REMARK   81  A    between atoms: _191  and  _192
REMARK   82  A    between atoms: _191  and  _194
REMARK   83  A    between atoms: _194  and  _195
REMARK   84  A    between atoms: _199  and  _200
REMARK   85  A    between atoms: _205  and  _207
REMARK   86  A    between atoms: _207  and  _208
REMARK   87  A    between atoms: _211  and  _213
REMARK   88  A    between atoms: _213  and  _214
REMARK   89  A    between atoms: _213  and  _216
REMARK   90  A    between atoms: _216  and  _217
REMARK   91  A    between atoms: _222  and  _224
REMARK   92  A    between atoms: _224  and  _225
REMARK   93  A    between atoms: _224  and  _227
REMARK   94  A    between atoms: _227  and  _228
REMARK   95  A    between atoms: _231  and  _233
REMARK   96  A    between atoms: _233  and  _234
REMARK   97  A    between atoms: _233  and  _236
REMARK   98  A    between atoms: _236  and  _237
REMARK   99  A    between atoms: _240  and  _242
REMARK  100  A    between atoms: _242  and  _243
REMARK  101  A    between atoms: _245  and  _247
REMARK  102  A    between atoms: _247  and  _248
REMARK  103  A    between atoms: _247  and  _250
REMARK  104  A    between atoms: _250  and  _251
REMARK  105  A    between atoms: _251  and  _252
REMARK  106  A    between atoms: _252  and  _253
REMARK  107  A    between atoms: _262  and  _264
REMARK  108  A    between atoms: _264  and  _265
REMARK  109  A    between atoms: _264  and  _267
REMARK  110  A    between atoms: _267  and  _268
REMARK  111  A    between atoms: _273  and  _275
REMARK  112  A    between atoms: _275  and  _276
REMARK  113  A    between atoms: _275  and  _278
REMARK  114  A    between atoms: _278  and  _279
REMARK  115  A    between atoms: _279  and  _280
REMARK  116  A    between atoms: _280  and  _281
REMARK  117  A    between atoms: _290  and  _292
REMARK  118  A    between atoms: _292  and  _293
REMARK  119  A    between atoms: _292  and  _295
REMARK  120  A    between atoms: _295  and  _296
REMARK  121  A    between atoms: _299  and  _301
REMARK  122  A    between atoms: _301  and  _302
REMARK  123  A    between atoms: _301  and  _304
REMARK  124  A    between atoms: _304  and  _305
REMARK  125  A    between atoms: _308  and  _310
REMARK  126  A    between atoms: _310  and  _311
REMARK  127  A    between atoms: _310  and  _313
REMARK  128  A    between atoms: _313  and  _314
REMARK  129  A    between atoms: _317  and  _319
REMARK  130  A    between atoms: _319  and  _320
REMARK  131  A    between atoms: _322  and  _324
REMARK  132  A    between atoms: _324  and  _325
REMARK  133  A    between atoms: _328  and  _330
REMARK  134  A    between atoms: _330  and  _331
REMARK  135  A    between atoms: _330  and  _333
REMARK  136  A    between atoms: _333  and  _334
REMARK  137  A    between atoms: _337  and  _339
REMARK  138  A    between atoms: _339  and  _340
REMARK  139  A    between atoms: _339  and  _342
REMARK  140  A    between atoms: _342  and  _343
REMARK  141  A    between atoms: _346  and  _348
REMARK  142  A    between atoms: _348  and  _349
REMARK  143  A    between atoms: _348  and  _351
REMARK  144  A    between atoms: _351  and  _352
REMARK  145  A    between atoms: _355  and  _357
REMARK  146  A    between atoms: _357  and  _358
REMARK  147  A    between atoms: _357  and  _360
REMARK  148  A    between atoms: _364  and  _365
REMARK  149  A    between atoms: _370  and  _372
REMARK  150  A    between atoms: _372  and  _373
REMARK  151  A    between atoms: _372  and  _375
REMARK  152  A    between atoms: _375  and  _376
REMARK  153  A    between atoms: _376  and  _377
REMARK  154  A    between atoms: _377  and  _378
REMARK  155  A    between atoms: _378  and  _379
REMARK  156  A    between atoms: _383  and  _385
REMARK  157  A    between atoms: _385  and  _386
REMARK  158  A    between atoms: _385  and  _388
REMARK  159  A    between atoms: _388  and  _389
REMARK  160  A    between atoms: _389  and  _390
REMARK  161  A    between atoms: _392  and  _394
REMARK  162  A    between atoms: _394  and  _395
REMARK  163  A    between atoms: _394  and  _397
REMARK  164  A    between atoms: _397  and  _398
REMARK  165  A    between atoms: _401  and  _403
REMARK  166  A    between atoms: _403  and  _404
REMARK  167  A    between atoms: _406  and  _408
REMARK  168  A    between atoms: _408  and  _409
REMARK  169  A    between atoms: _411  and  _413
REMARK  170  A    between atoms: _413  and  _414
REMARK  171  A    between atoms: _413  and  _416
REMARK  172  A    between atoms: _416  and  _417
REMARK  173  A    between atoms: _420  and  _422
REMARK  174  A    between atoms: _422  and  _423
REMARK  175  A    between atoms: _425  and  _427
REMARK  176  A    between atoms: _427  and  _428
REMARK  177  A    between atoms: _430  and  _432
REMARK  178  A    between atoms: _432  and  _433
REMARK  179  A    between atoms: _432  and  _435
REMARK  180  A    between atoms: _435  and  _436
REMARK  181  A    between atoms: _442  and  _444
REMARK  182  A    between atoms: _444  and  _445
REMARK  183  A    between atoms: _444  and  _447
REMARK  184  A    between atoms: _447  and  _448
REMARK  185  A    between atoms: _451  and  _453
REMARK  186  A    between atoms: _453  and  _454
REMARK  187  A    between atoms: _453  and  _456
REMARK  188  A    between atoms: _459  and  _461
REMARK  189  A    between atoms: _461  and  _462
REMARK  190  A    between atoms: _461  and  _464
REMARK  191  A    between atoms: _464  and  _465
REMARK  192  A    between atoms: _465  and  _466
REMARK  193  A    between atoms: _471  and  _473
REMARK  194  A    between atoms: _473  and  _474
REMARK  195  A    between atoms: _473  and  _476
REMARK  196  A    between atoms: _476  and  _477
REMARK  197  A    between atoms: _481  and  _482
REMARK  198  A    between atoms: _487  and  _489
REMARK  199  A    between atoms: _489  and  _490
REMARK  200  A    between atoms: _489  and  _492
REMARK  201  A    between atoms: _492  and  _493
REMARK  202  A    between atoms: _497  and  _498
REMARK  203  A    between atoms: _503  and  _505
REMARK  204  A    between atoms: _505  and  _506
REMARK  205  A    between atoms: _509  and  _511
REMARK  206  A    between atoms: _511  and  _512
REMARK  207  A    between atoms: _511  and  _514
REMARK  208  A    between atoms: _514  and  _515
REMARK  209  A    between atoms: _520  and  _522
REMARK  210  A    between atoms: _522  and  _523
REMARK  211  A    between atoms: _522  and  _525
REMARK  212  A    between atoms: _525  and  _526
REMARK  213  A    between atoms: _529  and  _531
REMARK  214  A    between atoms: _531  and  _532
REMARK  215  A    between atoms: _531  and  _534
REMARK  216  A    between atoms: _534  and  _535
REMARK  217  A    between atoms: _538  and  _540
REMARK  218  A    between atoms: _540  and  _541
REMARK  219  A    between atoms: _543  and  _545
REMARK  220  A    between atoms: _545  and  _546
REMARK  221  A    between atoms: _545  and  _548
REMARK  222  A    between atoms: _548  and  _549
REMARK  223  A    between atoms: _549  and  _550
REMARK  224  A    between atoms: _550  and  _551
REMARK  225  A    between atoms: _560  and  _562
REMARK  226  A    between atoms: _562  and  _563
REMARK  227  A    between atoms: _562  and  _565
REMARK  228  A    between atoms: _565  and  _566
REMARK                            x       y       z     vdW  Elec       q    Type
REMARK                         _______ _______ _______ _____ _____    ______ ____
ROOT
ATOM      1  O   HOH     1       4.758  21.544  11.305  0.00  0.00    +0.000 OA
ENDROOT
TORSDOF 0
REMARK  Name = ../refined-set-2016/2aoe/2aoe_pocket.pdb
REMARK  228 active torsions:
REMARK  status: ('A' for Active; 'I' for Inactive)
REMARK    1  A    between atoms: _1  and  _3
REMARK    2  A    between atoms: _3  and  _4
REMARK    3  A    between atoms: _3  and  _6
REMARK    4  A    between atoms: _6  and  _7
REMARK    5  A    between atoms: _7  and  _8
REMARK    6  A    between atoms: _8  and  _9
REMARK    7  A    between atoms: _18  and  _20
REMARK    8  A    between atoms: _20  and  _21
REMARK    9  A    between atoms: _20  and  _23
REMARK   10  A    between atoms: _23  and  _24
REMARK   11  A    between atoms: _27  and  _29
REMARK   12  A    between atoms: _29  and  _30
REMARK   13  A    between atoms: _29  and  _32
REMARK   14  A    between atoms: _32  and  _33
REMARK   15  A    between atoms: _36  and  _38
REMARK   16  A    between atoms: _38  and  _39
REMARK   17  A    between atoms: _38  and  _41
REMARK   18  A    between atoms: _41  and  _42
REMARK   19  A    between atoms: _45  and  _47
REMARK   20  A    between atoms: _47  and  _48
REMARK   21  A    between atoms: _50  and  _52
REMARK   22  A    between atoms: _52  and  _53
REMARK   23  A    between atoms: _56  and  _58
REMARK   24  A    between atoms: _58  and  _59
REMARK   25  A    between atoms: _58  and  _61
REMARK   26  A    between atoms: _61  and  _62
REMARK   27  A    between atoms: _65  and  _67
REMARK   28  A    between atoms: _67  and  _68
REMARK   29  A    between atoms: _67  and  _70
REMARK   30  A    between atoms: _70  and  _71
REMARK   31  A    between atoms: _74  and  _76
REMARK   32  A    between atoms: _76  and  _77
REMARK   33  A    between atoms: _76  and  _79
REMARK   34  A    between atoms: _79  and  _80
REMARK   35  A    between atoms: _83  and  _85
REMARK   36  A    between atoms: _85  and  _86
REMARK   37  A    between atoms: _85  and  _88
REMARK   38  A    between atoms: _91  and  _93
REMARK   39  A    between atoms: _93  and  _94
REMARK   40  A    between atoms: _93  and  _96
REMARK   41  A    between atoms: _97  and  _98
REMARK   42  A    between atoms: _98  and  _99
REMARK   43  A    between atoms: _99  and  _100
REMARK   44  A    between atoms: _104  and  _106
REMARK   45  A    between atoms: _106  and  _107
REMARK   46  A    between atoms: _106  and  _109
REMARK   47  A    between atoms: _109  and  _110
REMARK   48  A    between atoms: _110  and  _111
REMARK   49  A    between atoms: _113  and  _115
REMARK   50  A    between atoms: _115  and  _116
REMARK   51  A    between atoms: _115  and  _118
REMARK   52  A    between atoms: _118  and  _119
REMARK   53  A    between atoms: _122  and  _124
REMARK   54  A    between atoms: _124  and  _125
REMARK   55  A    between atoms: _127  and  _129
REMARK   56  A    between atoms: _129  and  _130
REMARK   57  A    between atoms: _132  and  _134
REMARK   58  A    between atoms: _134  and  _135
REMARK   59  A    between atoms: _134  and  _137
REMARK   60  A    between atoms: _137  and  _138
REMARK   61  A    between atoms: _141  and  _143
REMARK   62  A    between atoms: _143  and  _144
REMARK   63  A    between atoms: _146  and  _148
REMARK   64  A    between atoms: _148  and  _149
REMARK   65  A    between atoms: _151  and  _153
REMARK   66  A    between atoms: _153  and  _154
REMARK   67  A    between atoms: _153  and  _156
REMARK   68  A    between atoms: _156  and  _157
REMARK   69  A    between atoms: _163  and  _165
REMARK   70  A    between atoms: _165  and  _166
REMARK   71  A    between atoms: _165  and  _168
REMARK   72  A    between atoms: _168  and  _169
REMARK   73  A    between atoms: _172  and  _174
REMARK   74  A    between atoms: _174  and  _175
REMARK   75  A    between atoms: _174  and  _177
REMARK   76  A    between atoms: _180  and  _182
REMARK   77  A    between atoms: _182  and  _183
REMARK   78  A    between atoms: _182  and  _185
REMARK   79  A    between atoms: _185  and  _186
REMARK   80  A    between atoms: _189  and  _191
REMARK   81  A    between atoms: _191  and  _192
REMARK   82  A    between atoms: _191  and  _194
REMARK   83  A    between atoms: _194  and  _195
REMARK   84  A    between atoms: _199  and  _200
REMARK   85  A    between atoms: _205  and  _207
REMARK   86  A    between atoms: _207  and  _208
REMARK   87  A    between atoms: _211  and  _213
REMARK   88  A    between atoms: _213  and  _214
REMARK   89  A    between atoms: _213  and  _216
REMARK   90  A    between atoms: _216  and  _217
REMARK   91  A    between atoms: _222  and  _224
REMARK   92  A    between atoms: _224  and  _225
REMARK   93  A    between atoms: _224  and  _227
REMARK   94  A    between atoms: _227  and  _228
REMARK   95  A    between atoms: _231  and  _233
REMARK   96  A    between atoms: _233  and  _234
REMARK   97  A    between atoms: _233  and  _236
REMARK   98  A    between atoms: _236  and  _237
REMARK   99  A    between atoms: _240  and  _242
REMARK  100  A    between atoms: _242  and  _243
REMARK  101  A    between atoms: _245  and  _247
REMARK  102  A    between atoms: _247  and  _248
REMARK  103  A    between atoms: _247  and  _250
REMARK  104  A    between atoms: _250  and  _251
REMARK  105  A    between atoms: _251  and  _252
REMARK  106  A    between atoms: _252  and  _253
REMARK  107  A    between atoms: _262  and  _264
REMARK  108  A    between atoms: _264  and  _265
REMARK  109  A    between atoms: _264  and  _267
REMARK  110  A    between atoms: _267  and  _268
REMARK  111  A    between atoms: _273  and  _275
REMARK  112  A    between atoms: _275  and  _276
REMARK  113  A    between atoms: _275  and  _278
REMARK  114  A    between atoms: _278  and  _279
REMARK  115  A    between atoms: _279  and  _280
REMARK  116  A    between atoms: _280  and  _281
REMARK  117  A    between atoms: _290  and  _292
REMARK  118  A    between atoms: _292  and  _293
REMARK  119  A    between atoms: _292  and  _295
REMARK  120  A    between atoms: _295  and  _296
REMARK  121  A    between atoms: _299  and  _301
REMARK  122  A    between atoms: _301  and  _302
REMARK  123  A    between atoms: _301  and  _304
REMARK  124  A    between atoms: _304  and  _305
REMARK  125  A    between atoms: _308  and  _310
REMARK  126  A    between atoms: _310  and  _311
REMARK  127  A    between atoms: _310  and  _313
REMARK  128  A    between atoms: _313  and  _314
REMARK  129  A    between atoms: _317  and  _319
REMARK  130  A    between atoms: _319  and  _320
REMARK  131  A    between atoms: _322  and  _324
REMARK  132  A    between atoms: _324  and  _325
REMARK  133  A    between atoms: _328  and  _330
REMARK  134  A    between atoms: _330  and  _331
REMARK  135  A    between atoms: _330  and  _333
REMARK  136  A    between atoms: _333  and  _334
REMARK  137  A    between atoms: _337  and  _339
REMARK  138  A    between atoms: _339  and  _340
REMARK  139  A    between atoms: _339  and  _342
REMARK  140  A    between atoms: _342  and  _343
REMARK  141  A    between atoms: _346  and  _348
REMARK  142  A    between atoms: _348  and  _349
REMARK  143  A    between atoms: _348  and  _351
REMARK  144  A    between atoms: _351  and  _352
REMARK  145  A    between atoms: _355  and  _357
REMARK  146  A    between atoms: _357  and  _358
REMARK  147  A    between atoms: _357  and  _360
REMARK  148  A    between atoms: _364  and  _365
REMARK  149  A    between atoms: _370  and  _372
REMARK  150  A    between atoms: _372  and  _373
REMARK  151  A    between atoms: _372  and  _375
REMARK  152  A    between atoms: _375  and  _376
REMARK  153  A    between atoms: _376  and  _377
REMARK  154  A    between atoms: _377  and  _378
REMARK  155  A    between atoms: _378  and  _379
REMARK  156  A    between atoms: _383  and  _385
REMARK  157  A    between atoms: _385  and  _386
REMARK  158  A    between atoms: _385  and  _388
REMARK  159  A    between atoms: _388  and  _389
REMARK  160  A    between atoms: _389  and  _390
REMARK  161  A    between atoms: _392  and  _394
REMARK  162  A    between atoms: _394  and  _395
REMARK  163  A    between atoms: _394  and  _397
REMARK  164  A    between atoms: _397  and  _398
REMARK  165  A    between atoms: _401  and  _403
REMARK  166  A    between atoms: _403  and  _404
REMARK  167  A    between atoms: _406  and  _408
REMARK  168  A    between atoms: _408  and  _409
REMARK  169  A    between atoms: _411  and  _413
REMARK  170  A    between atoms: _413  and  _414
REMARK  171  A    between atoms: _413  and  _416
REMARK  172  A    between atoms: _416  and  _417
REMARK  173  A    between atoms: _420  and  _422
REMARK  174  A    between atoms: _422  and  _423
REMARK  175  A    between atoms: _425  and  _427
REMARK  176  A    between atoms: _427  and  _428
REMARK  177  A    between atoms: _430  and  _432
REMARK  178  A    between atoms: _432  and  _433
REMARK  179  A    between atoms: _432  and  _435
REMARK  180  A    between atoms: _435  and  _436
REMARK  181  A    between atoms: _442  and  _444
REMARK  182  A    between atoms: _444  and  _445
REMARK  183  A    between atoms: _444  and  _447
REMARK  184  A    between atoms: _447  and  _448
REMARK  185  A    between atoms: _451  and  _453
REMARK  186  A    between atoms: _453  and  _454
REMARK  187  A    between atoms: _453  and  _456
REMARK  188  A    between atoms: _459  and  _461
REMARK  189  A    between atoms: _461  and  _462
REMARK  190  A    between atoms: _461  and  _464
REMARK  191  A    between atoms: _464  and  _465
REMARK  192  A    between atoms: _465  and  _466
REMARK  193  A    between atoms: _471  and  _473
REMARK  194  A    between atoms: _473  and  _474
REMARK  195  A    between atoms: _473  and  _476
REMARK  196  A    between atoms: _476  and  _477
REMARK  197  A    between atoms: _481  and  _482
REMARK  198  A    between atoms: _487  and  _489
REMARK  199  A    between atoms: _489  and  _490
REMARK  200  A    between atoms: _489  and  _492
REMARK  201  A    between atoms: _492  and  _493
REMARK  202  A    between atoms: _497  and  _498
REMARK  203  A    between atoms: _503  and  _505
REMARK  204  A    between atoms: _505  and  _506
REMARK  205  A    between atoms: _509  and  _511
REMARK  206  A    between atoms: _511  and  _512
REMARK  207  A    between atoms: _511  and  _514
REMARK  208  A    between atoms: _514  and  _515
REMARK  209  A    between atoms: _520  and  _522
REMARK  210  A    between atoms: _522  and  _523
REMARK  211  A    between atoms: _522  and  _525
REMARK  212  A    between atoms: _525  and  _526
REMARK  213  A    between atoms: _529  and  _531
REMARK  214  A    between atoms: _531  and  _532
REMARK  215  A    between atoms: _531  and  _534
REMARK  216  A    between atoms: _534  and  _535
REMARK  217  A    between atoms: _538  and  _540
REMARK  218  A    between atoms: _540  and  _541
REMARK  219  A    between atoms: _543  and  _545
REMARK  220  A    between atoms: _545  and  _546
REMARK  221  A    between atoms: _545  and  _548
REMARK  222  A    between atoms: _548  and  _549
REMARK  223  A    between atoms: _549  and  _550
REMARK  224  A    between atoms: _550  and  _551
REMARK  225  A    between atoms: _560  and  _562
REMARK  226  A    between atoms: _562  and  _563
REMARK  227  A    between atoms: _562  and  _565
REMARK  228  A    between atoms: _565  and  _566
REMARK                            x       y       z     vdW  Elec       q    Type
REMARK                         _______ _______ _______ _____ _____    ______ ____
ROOT
ATOM      1  O   HOH     1       7.518  22.874  11.833  0.00  0.00    +0.000 OA
ENDROOT
TORSDOF 0
REMARK  Name = ../refined-set-2016/2aoe/2aoe_pocket.pdb
REMARK  228 active torsions:
REMARK  status: ('A' for Active; 'I' for Inactive)
REMARK    1  A    between atoms: _1  and  _3
REMARK    2  A    between atoms: _3  and  _4
REMARK    3  A    between atoms: _3  and  _6
REMARK    4  A    between atoms: _6  and  _7
REMARK    5  A    between atoms: _7  and  _8
REMARK    6  A    between atoms: _8  and  _9
REMARK    7  A    between atoms: _18  and  _20
REMARK    8  A    between atoms: _20  and  _21
REMARK    9  A    between atoms: _20  and  _23
REMARK   10  A    between atoms: _23  and  _24
REMARK   11  A    between atoms: _27  and  _29
REMARK   12  A    between atoms: _29  and  _30
REMARK   13  A    between atoms: _29  and  _32
REMARK   14  A    between atoms: _32  and  _33
REMARK   15  A    between atoms: _36  and  _38
REMARK   16  A    between atoms: _38  and  _39
REMARK   17  A    between atoms: _38  and  _41
REMARK   18  A    between atoms: _41  and  _42
REMARK   19  A    between atoms: _45  and  _47
REMARK   20  A    between atoms: _47  and  _48
REMARK   21  A    between atoms: _50  and  _52
REMARK   22  A    between atoms: _52  and  _53
REMARK   23  A    between atoms: _56  and  _58
REMARK   24  A    between atoms: _58  and  _59
REMARK   25  A    between atoms: _58  and  _61
REMARK   26  A    between atoms: _61  and  _62
REMARK   27  A    between atoms: _65  and  _67
REMARK   28  A    between atoms: _67  and  _68
REMARK   29  A    between atoms: _67  and  _70
REMARK   30  A    between atoms: _70  and  _71
REMARK   31  A    between atoms: _74  and  _76
REMARK   32  A    between atoms: _76  and  _77
REMARK   33  A    between atoms: _76  and  _79
REMARK   34  A    between atoms: _79  and  _80
REMARK   35  A    between atoms: _83  and  _85
REMARK   36  A    between atoms: _85  and  _86
REMARK   37  A    between atoms: _85  and  _88
REMARK   38  A    between atoms: _91  and  _93
REMARK   39  A    between atoms: _93  and  _94
REMARK   40  A    between atoms: _93  and  _96
REMARK   41  A    between atoms: _97  and  _98
REMARK   42  A    between atoms: _98  and  _99
REMARK   43  A    between atoms: _99  and  _100
REMARK   44  A    between atoms: _104  and  _106
REMARK   45  A    between atoms: _106  and  _107
REMARK   46  A    between atoms: _106  and  _109
REMARK   47  A    between atoms: _109  and  _110
REMARK   48  A    between atoms: _110  and  _111
REMARK   49  A    between atoms: _113  and  _115
REMARK   50  A    between atoms: _115  and  _116
REMARK   51  A    between atoms: _115  and  _118
REMARK   52  A    between atoms: _118  and  _119
REMARK   53  A    between atoms: _122  and  _124
REMARK   54  A    between atoms: _124  and  _125
REMARK   55  A    between atoms: _127  and  _129
REMARK   56  A    between atoms: _129  and  _130
REMARK   57  A    between atoms: _132  and  _134
REMARK   58  A    between atoms: _134  and  _135
REMARK   59  A    between atoms: _134  and  _137
REMARK   60  A    between atoms: _137  and  _138
REMARK   61  A    between atoms: _141  and  _143
REMARK   62  A    between atoms: _143  and  _144
REMARK   63  A    between atoms: _146  and  _148
REMARK   64  A    between atoms: _148  and  _149
REMARK   65  A    between atoms: _151  and  _153
REMARK   66  A    between atoms: _153  and  _154
REMARK   67  A    between atoms: _153  and  _156
REMARK   68  A    between atoms: _156  and  _157
REMARK   69  A    between atoms: _163  and  _165
REMARK   70  A    between atoms: _165  and  _166
REMARK   71  A    between atoms: _165  and  _168
REMARK   72  A    between atoms: _168  and  _169
REMARK   73  A    between atoms: _172  and  _174
REMARK   74  A    between atoms: _174  and  _175
REMARK   75  A    between atoms: _174  and  _177
REMARK   76  A    between atoms: _180  and  _182
REMARK   77  A    between atoms: _182  and  _183
REMARK   78  A    between atoms: _182  and  _185
REMARK   79  A    between atoms: _185  and  _186
REMARK   80  A    between atoms: _189  and  _191
REMARK   81  A    between atoms: _191  and  _192
REMARK   82  A    between atoms: _191  and  _194
REMARK   83  A    between atoms: _194  and  _195
REMARK   84  A    between atoms: _199  and  _200
REMARK   85  A    between atoms: _205  and  _207
REMARK   86  A    between atoms: _207  and  _208
REMARK   87  A    between atoms: _211  and  _213
REMARK   88  A    between atoms: _213  and  _214
REMARK   89  A    between atoms: _213  and  _216
REMARK   90  A    between atoms: _216  and  _217
REMARK   91  A    between atoms: _222  and  _224
REMARK   92  A    between atoms: _224  and  _225
REMARK   93  A    between atoms: _224  and  _227
REMARK   94  A    between atoms: _227  and  _228
REMARK   95  A    between atoms: _231  and  _233
REMARK   96  A    between atoms: _233  and  _234
REMARK   97  A    between atoms: _233  and  _236
REMARK   98  A    between atoms: _236  and  _237
REMARK   99  A    between atoms: _240  and  _242
REMARK  100  A    between atoms: _242  and  _243
REMARK  101  A    between atoms: _245  and  _247
REMARK  102  A    between atoms: _247  and  _248
REMARK  103  A    between atoms: _247  and  _250
REMARK  104  A    between atoms: _250  and  _251
REMARK  105  A    between atoms: _251  and  _252
REMARK  106  A    between atoms: _252  and  _253
REMARK  107  A    between atoms: _262  and  _264
REMARK  108  A    between atoms: _264  and  _265
REMARK  109  A    between atoms: _264  and  _267
REMARK  110  A    between atoms: _267  and  _268
REMARK  111  A    between atoms: _273  and  _275
REMARK  112  A    between atoms: _275  and  _276
REMARK  113  A    between atoms: _275  and  _278
REMARK  114  A    between atoms: _278  and  _279
REMARK  115  A    between atoms: _279  and  _280
REMARK  116  A    between atoms: _280  and  _281
REMARK  117  A    between atoms: _290  and  _292
REMARK  118  A    between atoms: _292  and  _293
REMARK  119  A    between atoms: _292  and  _295
REMARK  120  A    between atoms: _295  and  _296
REMARK  121  A    between atoms: _299  and  _301
REMARK  122  A    between atoms: _301  and  _302
REMARK  123  A    between atoms: _301  and  _304
REMARK  124  A    between atoms: _304  and  _305
REMARK  125  A    between atoms: _308  and  _310
REMARK  126  A    between atoms: _310  and  _311
REMARK  127  A    between atoms: _310  and  _313
REMARK  128  A    between atoms: _313  and  _314
REMARK  129  A    between atoms: _317  and  _319
REMARK  130  A    between atoms: _319  and  _320
REMARK  131  A    between atoms: _322  and  _324
REMARK  132  A    between atoms: _324  and  _325
REMARK  133  A    between atoms: _328  and  _330
REMARK  134  A    between atoms: _330  and  _331
REMARK  135  A    between atoms: _330  and  _333
REMARK  136  A    between atoms: _333  and  _334
REMARK  137  A    between atoms: _337  and  _339
REMARK  138  A    between atoms: _339  and  _340
REMARK  139  A    between atoms: _339  and  _342
REMARK  140  A    between atoms: _342  and  _343
REMARK  141  A    between atoms: _346  and  _348
REMARK  142  A    between atoms: _348  and  _349
REMARK  143  A    between atoms: _348  and  _351
REMARK  144  A    between atoms: _351  and  _352
REMARK  145  A    between atoms: _355  and  _357
REMARK  146  A    between atoms: _357  and  _358
REMARK  147  A    between atoms: _357  and  _360
REMARK  148  A    between atoms: _364  and  _365
REMARK  149  A    between atoms: _370  and  _372
REMARK  150  A    between atoms: _372  and  _373
REMARK  151  A    between atoms: _372  and  _375
REMARK  152  A    between atoms: _375  and  _376
REMARK  153  A    between atoms: _376  and  _377
REMARK  154  A    between atoms: _377  and  _378
REMARK  155  A    between atoms: _378  and  _379
REMARK  156  A    between atoms: _383  and  _385
REMARK  157  A    between atoms: _385  and  _386
REMARK  158  A    between atoms: _385  and  _388
REMARK  159  A    between atoms: _388  and  _389
REMARK  160  A    between atoms: _389  and  _390
REMARK  161  A    between atoms: _392  and  _394
REMARK  162  A    between atoms: _394  and  _395
REMARK  163  A    between atoms: _394  and  _397
REMARK  164  A    between atoms: _397  and  _398
REMARK  165  A    between atoms: _401  and  _403
REMARK  166  A    between atoms: _403  and  _404
REMARK  167  A    between atoms: _406  and  _408
REMARK  168  A    between atoms: _408  and  _409
REMARK  169  A    between atoms: _411  and  _413
REMARK  170  A    between atoms: _413  and  _414
REMARK  171  A    between atoms: _413  and  _416
REMARK  172  A    between atoms: _416  and  _417
REMARK  173  A    between atoms: _420  and  _422
REMARK  174  A    between atoms: _422  and  _423
REMARK  175  A    between atoms: _425  and  _427
REMARK  176  A    between atoms: _427  and  _428
REMARK  177  A    between atoms: _430  and  _432
REMARK  178  A    between atoms: _432  and  _433
REMARK  179  A    between atoms: _432  and  _435
REMARK  180  A    between atoms: _435  and  _436
REMARK  181  A    between atoms: _442  and  _444
REMARK  182  A    between atoms: _444  and  _445
REMARK  183  A    between atoms: _444  and  _447
REMARK  184  A    between atoms: _447  and  _448
REMARK  185  A    between atoms: _451  and  _453
REMARK  186  A    between atoms: _453  and  _454
REMARK  187  A    between atoms: _453  and  _456
REMARK  188  A    between atoms: _459  and  _461
REMARK  189  A    between atoms: _461  and  _462
REMARK  190  A    between atoms: _461  and  _464
REMARK  191  A    between atoms: _464  and  _465
REMARK  192  A    between atoms: _465  and  _466
REMARK  193  A    between atoms: _471  and  _473
REMARK  194  A    between atoms: _473  and  _474
REMARK  195  A    between atoms: _473  and  _476
REMARK  196  A    between atoms: _476  and  _477
REMARK  197  A    between atoms: _481  and  _482
REMARK  198  A    between atoms: _487  and  _489
REMARK  199  A    between atoms: _489  and  _490
REMARK  200  A    between atoms: _489  and  _492
REMARK  201  A    between atoms: _492  and  _493
REMARK  202  A    between atoms: _497  and  _498
REMARK  203  A    between atoms: _503  and  _505
REMARK  204  A    between atoms: _505  and  _506
REMARK  205  A    between atoms: _509  and  _511
REMARK  206  A    between atoms: _511  and  _512
REMARK  207  A    between atoms: _511  and  _514
REMARK  208  A    between atoms: _514  and  _515
REMARK  209  A    between atoms: _520  and  _522
REMARK  210  A    between atoms: _522  and  _523
REMARK  211  A    between atoms: _522  and  _525
REMARK  212  A    between atoms: _525  and  _526
REMARK  213  A    between atoms: _529  and  _531
REMARK  214  A    between atoms: _531  and  _532
REMARK  215  A    between atoms: _531  and  _534
REMARK  216  A    between atoms: _534  and  _535
REMARK  217  A    between atoms: _538  and  _540
REMARK  218  A    between atoms: _540  and  _541
REMARK  219  A    between atoms: _543  and  _545
REMARK  220  A    between atoms: _545  and  _546
REMARK  221  A    between atoms: _545  and  _548
REMARK  222  A    between atoms: _548  and  _549
REMARK  223  A    between atoms: _549  and  _550
REMARK  224  A    between atoms: _550  and  _551
REMARK  225  A    between atoms: _560  and  _562
REMARK  226  A    between atoms: _562  and  _563
REMARK  227  A    between atoms: _562  and  _565
REMARK  228  A    between atoms: _565  and  _566
REMARK                            x       y       z     vdW  Elec       q    Type
REMARK                         _______ _______ _______ _____ _____    ______ ____
ROOT
ATOM      1  O   HOH     1       8.975  16.121  26.864  0.00  0.00    +0.000 OA
ENDROOT
TORSDOF 0
REMARK  Name = ../refined-set-2016/2aoe/2aoe_pocket.pdb
REMARK  228 active torsions:
REMARK  status: ('A' for Active; 'I' for Inactive)
REMARK    1  A    between atoms: _1  and  _3
REMARK    2  A    between atoms: _3  and  _4
REMARK    3  A    between atoms: _3  and  _6
REMARK    4  A    between atoms: _6  and  _7
REMARK    5  A    between atoms: _7  and  _8
REMARK    6  A    between atoms: _8  and  _9
REMARK    7  A    between atoms: _18  and  _20
REMARK    8  A    between atoms: _20  and  _21
REMARK    9  A    between atoms: _20  and  _23
REMARK   10  A    between atoms: _23  and  _24
REMARK   11  A    between atoms: _27  and  _29
REMARK   12  A    between atoms: _29  and  _30
REMARK   13  A    between atoms: _29  and  _32
REMARK   14  A    between atoms: _32  and  _33
REMARK   15  A    between atoms: _36  and  _38
REMARK   16  A    between atoms: _38  and  _39
REMARK   17  A    between atoms: _38  and  _41
REMARK   18  A    between atoms: _41  and  _42
REMARK   19  A    between atoms: _45  and  _47
REMARK   20  A    between atoms: _47  and  _48
REMARK   21  A    between atoms: _50  and  _52
REMARK   22  A    between atoms: _52  and  _53
REMARK   23  A    between atoms: _56  and  _58
REMARK   24  A    between atoms: _58  and  _59
REMARK   25  A    between atoms: _58  and  _61
REMARK   26  A    between atoms: _61  and  _62
REMARK   27  A    between atoms: _65  and  _67
REMARK   28  A    between atoms: _67  and  _68
REMARK   29  A    between atoms: _67  and  _70
REMARK   30  A    between atoms: _70  and  _71
REMARK   31  A    between atoms: _74  and  _76
REMARK   32  A    between atoms: _76  and  _77
REMARK   33  A    between atoms: _76  and  _79
REMARK   34  A    between atoms: _79  and  _80
REMARK   35  A    between atoms: _83  and  _85
REMARK   36  A    between atoms: _85  and  _86
REMARK   37  A    between atoms: _85  and  _88
REMARK   38  A    between atoms: _91  and  _93
REMARK   39  A    between atoms: _93  and  _94
REMARK   40  A    between atoms: _93  and  _96
REMARK   41  A    between atoms: _97  and  _98
REMARK   42  A    between atoms: _98  and  _99
REMARK   43  A    between atoms: _99  and  _100
REMARK   44  A    between atoms: _104  and  _106
REMARK   45  A    between atoms: _106  and  _107
REMARK   46  A    between atoms: _106  and  _109
REMARK   47  A    between atoms: _109  and  _110
REMARK   48  A    between atoms: _110  and  _111
REMARK   49  A    between atoms: _113  and  _115
REMARK   50  A    between atoms: _115  and  _116
REMARK   51  A    between atoms: _115  and  _118
REMARK   52  A    between atoms: _118  and  _119
REMARK   53  A    between atoms: _122  and  _124
REMARK   54  A    between atoms: _124  and  _125
REMARK   55  A    between atoms: _127  and  _129
REMARK   56  A    between atoms: _129  and  _130
REMARK   57  A    between atoms: _132  and  _134
REMARK   58  A    between atoms: _134  and  _135
REMARK   59  A    between atoms: _134  and  _137
REMARK   60  A    between atoms: _137  and  _138
REMARK   61  A    between atoms: _141  and  _143
REMARK   62  A    between atoms: _143  and  _144
REMARK   63  A    between atoms: _146  and  _148
REMARK   64  A    between atoms: _148  and  _149
REMARK   65  A    between atoms: _151  and  _153
REMARK   66  A    between atoms: _153  and  _154
REMARK   67  A    between atoms: _153  and  _156
REMARK   68  A    between atoms: _156  and  _157
REMARK   69  A    between atoms: _163  and  _165
REMARK   70  A    between atoms: _165  and  _166
REMARK   71  A    between atoms: _165  and  _168
REMARK   72  A    between atoms: _168  and  _169
REMARK   73  A    between atoms: _172  and  _174
REMARK   74  A    between atoms: _174  and  _175
REMARK   75  A    between atoms: _174  and  _177
REMARK   76  A    between atoms: _180  and  _182
REMARK   77  A    between atoms: _182  and  _183
REMARK   78  A    between atoms: _182  and  _185
REMARK   79  A    between atoms: _185  and  _186
REMARK   80  A    between atoms: _189  and  _191
REMARK   81  A    between atoms: _191  and  _192
REMARK   82  A    between atoms: _191  and  _194
REMARK   83  A    between atoms: _194  and  _195
REMARK   84  A    between atoms: _199  and  _200
REMARK   85  A    between atoms: _205  and  _207
REMARK   86  A    between atoms: _207  and  _208
REMARK   87  A    between atoms: _211  and  _213
REMARK   88  A    between atoms: _213  and  _214
REMARK   89  A    between atoms: _213  and  _216
REMARK   90  A    between atoms: _216  and  _217
REMARK   91  A    between atoms: _222  and  _224
REMARK   92  A    between atoms: _224  and  _225
REMARK   93  A    between atoms: _224  and  _227
REMARK   94  A    between atoms: _227  and  _228
REMARK   95  A    between atoms: _231  and  _233
REMARK   96  A    between atoms: _233  and  _234
REMARK   97  A    between atoms: _233  and  _236
REMARK   98  A    between atoms: _236  and  _237
REMARK   99  A    between atoms: _240  and  _242
REMARK  100  A    between atoms: _242  and  _243
REMARK  101  A    between atoms: _245  and  _247
REMARK  102  A    between atoms: _247  and  _248
REMARK  103  A    between atoms: _247  and  _250
REMARK  104  A    between atoms: _250  and  _251
REMARK  105  A    between atoms: _251  and  _252
REMARK  106  A    between atoms: _252  and  _253
REMARK  107  A    between atoms: _262  and  _264
REMARK  108  A    between atoms: _264  and  _265
REMARK  109  A    between atoms: _264  and  _267
REMARK  110  A    between atoms: _267  and  _268
REMARK  111  A    between atoms: _273  and  _275
REMARK  112  A    between atoms: _275  and  _276
REMARK  113  A    between atoms: _275  and  _278
REMARK  114  A    between atoms: _278  and  _279
REMARK  115  A    between atoms: _279  and  _280
REMARK  116  A    between atoms: _280  and  _281
REMARK  117  A    between atoms: _290  and  _292
REMARK  118  A    between atoms: _292  and  _293
REMARK  119  A    between atoms: _292  and  _295
REMARK  120  A    between atoms: _295  and  _296
REMARK  121  A    between atoms: _299  and  _301
REMARK  122  A    between atoms: _301  and  _302
REMARK  123  A    between atoms: _301  and  _304
REMARK  124  A    between atoms: _304  and  _305
REMARK  125  A    between atoms: _308  and  _310
REMARK  126  A    between atoms: _310  and  _311
REMARK  127  A    between atoms: _310  and  _313
REMARK  128  A    between atoms: _313  and  _314
REMARK  129  A    between atoms: _317  and  _319
REMARK  130  A    between atoms: _319  and  _320
REMARK  131  A    between atoms: _322  and  _324
REMARK  132  A    between atoms: _324  and  _325
REMARK  133  A    between atoms: _328  and  _330
REMARK  134  A    between atoms: _330  and  _331
REMARK  135  A    between atoms: _330  and  _333
REMARK  136  A    between atoms: _333  and  _334
REMARK  137  A    between atoms: _337  and  _339
REMARK  138  A    between atoms: _339  and  _340
REMARK  139  A    between atoms: _339  and  _342
REMARK  140  A    between atoms: _342  and  _343
REMARK  141  A    between atoms: _346  and  _348
REMARK  142  A    between atoms: _348  and  _349
REMARK  143  A    between atoms: _348  and  _351
REMARK  144  A    between atoms: _351  and  _352
REMARK  145  A    between atoms: _355  and  _357
REMARK  146  A    between atoms: _357  and  _358
REMARK  147  A    between atoms: _357  and  _360
REMARK  148  A    between atoms: _364  and  _365
REMARK  149  A    between atoms: _370  and  _372
REMARK  150  A    between atoms: _372  and  _373
REMARK  151  A    between atoms: _372  and  _375
REMARK  152  A    between atoms: _375  and  _376
REMARK  153  A    between atoms: _376  and  _377
REMARK  154  A    between atoms: _377  and  _378
REMARK  155  A    between atoms: _378  and  _379
REMARK  156  A    between atoms: _383  and  _385
REMARK  157  A    between atoms: _385  and  _386
REMARK  158  A    between atoms: _385  and  _388
REMARK  159  A    between atoms: _388  and  _389
REMARK  160  A    between atoms: _389  and  _390
REMARK  161  A    between atoms: _392  and  _394
REMARK  162  A    between atoms: _394  and  _395
REMARK  163  A    between atoms: _394  and  _397
REMARK  164  A    between atoms: _397  and  _398
REMARK  165  A    between atoms: _401  and  _403
REMARK  166  A    between atoms: _403  and  _404
REMARK  167  A    between atoms: _406  and  _408
REMARK  168  A    between atoms: _408  and  _409
REMARK  169  A    between atoms: _411  and  _413
REMARK  170  A    between atoms: _413  and  _414
REMARK  171  A    between atoms: _413  and  _416
REMARK  172  A    between atoms: _416  and  _417
REMARK  173  A    between atoms: _420  and  _422
REMARK  174  A    between atoms: _422  and  _423
REMARK  175  A    between atoms: _425  and  _427
REMARK  176  A    between atoms: _427  and  _428
REMARK  177  A    between atoms: _430  and  _432
REMARK  178  A    between atoms: _432  and  _433
REMARK  179  A    between atoms: _432  and  _435
REMARK  180  A    between atoms: _435  and  _436
REMARK  181  A    between atoms: _442  and  _444
REMARK  182  A    between atoms: _444  and  _445
REMARK  183  A    between atoms: _444  and  _447
REMARK  184  A    between atoms: _447  and  _448
REMARK  185  A    between atoms: _451  and  _453
REMARK  186  A    between atoms: _453  and  _454
REMARK  187  A    between atoms: _453  and  _456
REMARK  188  A    between atoms: _459  and  _461
REMARK  189  A    between atoms: _461  and  _462
REMARK  190  A    between atoms: _461  and  _464
REMARK  191  A    between atoms: _464  and  _465
REMARK  192  A    between atoms: _465  and  _466
REMARK  193  A    between atoms: _471  and  _473
REMARK  194  A    between atoms: _473  and  _474
REMARK  195  A    between atoms: _473  and  _476
REMARK  196  A    between atoms: _476  and  _477
REMARK  197  A    between atoms: _481  and  _482
REMARK  198  A    between atoms: _487  and  _489
REMARK  199  A    between atoms: _489  and  _490
REMARK  200  A    between atoms: _489  and  _492
REMARK  201  A    between atoms: _492  and  _493
REMARK  202  A    between atoms: _497  and  _498
REMARK  203  A    between atoms: _503  and  _505
REMARK  204  A    between atoms: _505  and  _506
REMARK  205  A    between atoms: _509  and  _511
REMARK  206  A    between atoms: _511  and  _512
REMARK  207  A    between atoms: _511  and  _514
REMARK  208  A    between atoms: _514  and  _515
REMARK  209  A    between atoms: _520  and  _522
REMARK  210  A    between atoms: _522  and  _523
REMARK  211  A    between atoms: _522  and  _525
REMARK  212  A    between atoms: _525  and  _526
REMARK  213  A    between atoms: _529  and  _531
REMARK  214  A    between atoms: _531  and  _532
REMARK  215  A    between atoms: _531  and  _534
REMARK  216  A    between atoms: _534  and  _535
REMARK  217  A    between atoms: _538  and  _540
REMARK  218  A    between atoms: _540  and  _541
REMARK  219  A    between atoms: _543  and  _545
REMARK  220  A    between atoms: _545  and  _546
REMARK  221  A    between atoms: _545  and  _548
REMARK  222  A    between atoms: _548  and  _549
REMARK  223  A    between atoms: _549  and  _550
REMARK  224  A    between atoms: _550  and  _551
REMARK  225  A    between atoms: _560  and  _562
REMARK  226  A    between atoms: _562  and  _563
REMARK  227  A    between atoms: _562  and  _565
REMARK  228  A    between atoms: _565  and  _566
REMARK                            x       y       z     vdW  Elec       q    Type
REMARK                         _______ _______ _______ _____ _____    ______ ____
ROOT
ATOM      1  O   HOH     1      17.727  20.886  16.562  0.00  0.00    +0.000 OA
ENDROOT
TORSDOF 0
REMARK  Name = ../refined-set-2016/2aoe/2aoe_pocket.pdb
REMARK  228 active torsions:
REMARK  status: ('A' for Active; 'I' for Inactive)
REMARK    1  A    between atoms: _1  and  _3
REMARK    2  A    between atoms: _3  and  _4
REMARK    3  A    between atoms: _3  and  _6
REMARK    4  A    between atoms: _6  and  _7
REMARK    5  A    between atoms: _7  and  _8
REMARK    6  A    between atoms: _8  and  _9
REMARK    7  A    between atoms: _18  and  _20
REMARK    8  A    between atoms: _20  and  _21
REMARK    9  A    between atoms: _20  and  _23
REMARK   10  A    between atoms: _23  and  _24
REMARK   11  A    between atoms: _27  and  _29
REMARK   12  A    between atoms: _29  and  _30
REMARK   13  A    between atoms: _29  and  _32
REMARK   14  A    between atoms: _32  and  _33
REMARK   15  A    between atoms: _36  and  _38
REMARK   16  A    between atoms: _38  and  _39
REMARK   17  A    between atoms: _38  and  _41
REMARK   18  A    between atoms: _41  and  _42
REMARK   19  A    between atoms: _45  and  _47
REMARK   20  A    between atoms: _47  and  _48
REMARK   21  A    between atoms: _50  and  _52
REMARK   22  A    between atoms: _52  and  _53
REMARK   23  A    between atoms: _56  and  _58
REMARK   24  A    between atoms: _58  and  _59
REMARK   25  A    between atoms: _58  and  _61
REMARK   26  A    between atoms: _61  and  _62
REMARK   27  A    between atoms: _65  and  _67
REMARK   28  A    between atoms: _67  and  _68
REMARK   29  A    between atoms: _67  and  _70
REMARK   30  A    between atoms: _70  and  _71
REMARK   31  A    between atoms: _74  and  _76
REMARK   32  A    between atoms: _76  and  _77
REMARK   33  A    between atoms: _76  and  _79
REMARK   34  A    between atoms: _79  and  _80
REMARK   35  A    between atoms: _83  and  _85
REMARK   36  A    between atoms: _85  and  _86
REMARK   37  A    between atoms: _85  and  _88
REMARK   38  A    between atoms: _91  and  _93
REMARK   39  A    between atoms: _93  and  _94
REMARK   40  A    between atoms: _93  and  _96
REMARK   41  A    between atoms: _97  and  _98
REMARK   42  A    between atoms: _98  and  _99
REMARK   43  A    between atoms: _99  and  _100
REMARK   44  A    between atoms: _104  and  _106
REMARK   45  A    between atoms: _106  and  _107
REMARK   46  A    between atoms: _106  and  _109
REMARK   47  A    between atoms: _109  and  _110
REMARK   48  A    between atoms: _110  and  _111
REMARK   49  A    between atoms: _113  and  _115
REMARK   50  A    between atoms: _115  and  _116
REMARK   51  A    between atoms: _115  and  _118
REMARK   52  A    between atoms: _118  and  _119
REMARK   53  A    between atoms: _122  and  _124
REMARK   54  A    between atoms: _124  and  _125
REMARK   55  A    between atoms: _127  and  _129
REMARK   56  A    between atoms: _129  and  _130
REMARK   57  A    between atoms: _132  and  _134
REMARK   58  A    between atoms: _134  and  _135
REMARK   59  A    between atoms: _134  and  _137
REMARK   60  A    between atoms: _137  and  _138
REMARK   61  A    between atoms: _141  and  _143
REMARK   62  A    between atoms: _143  and  _144
REMARK   63  A    between atoms: _146  and  _148
REMARK   64  A    between atoms: _148  and  _149
REMARK   65  A    between atoms: _151  and  _153
REMARK   66  A    between atoms: _153  and  _154
REMARK   67  A    between atoms: _153  and  _156
REMARK   68  A    between atoms: _156  and  _157
REMARK   69  A    between atoms: _163  and  _165
REMARK   70  A    between atoms: _165  and  _166
REMARK   71  A    between atoms: _165  and  _168
REMARK   72  A    between atoms: _168  and  _169
REMARK   73  A    between atoms: _172  and  _174
REMARK   74  A    between atoms: _174  and  _175
REMARK   75  A    between atoms: _174  and  _177
REMARK   76  A    between atoms: _180  and  _182
REMARK   77  A    between atoms: _182  and  _183
REMARK   78  A    between atoms: _182  and  _185
REMARK   79  A    between atoms: _185  and  _186
REMARK   80  A    between atoms: _189  and  _191
REMARK   81  A    between atoms: _191  and  _192
REMARK   82  A    between atoms: _191  and  _194
REMARK   83  A    between atoms: _194  and  _195
REMARK   84  A    between atoms: _199  and  _200
REMARK   85  A    between atoms: _205  and  _207
REMARK   86  A    between atoms: _207  and  _208
REMARK   87  A    between atoms: _211  and  _213
REMARK   88  A    between atoms: _213  and  _214
REMARK   89  A    between atoms: _213  and  _216
REMARK   90  A    between atoms: _216  and  _217
REMARK   91  A    between atoms: _222  and  _224
REMARK   92  A    between atoms: _224  and  _225
REMARK   93  A    between atoms: _224  and  _227
REMARK   94  A    between atoms: _227  and  _228
REMARK   95  A    between atoms: _231  and  _233
REMARK   96  A    between atoms: _233  and  _234
REMARK   97  A    between atoms: _233  and  _236
REMARK   98  A    between atoms: _236  and  _237
REMARK   99  A    between atoms: _240  and  _242
REMARK  100  A    between atoms: _242  and  _243
REMARK  101  A    between atoms: _245  and  _247
REMARK  102  A    between atoms: _247  and  _248
REMARK  103  A    between atoms: _247  and  _250
REMARK  104  A    between atoms: _250  and  _251
REMARK  105  A    between atoms: _251  and  _252
REMARK  106  A    between atoms: _252  and  _253
REMARK  107  A    between atoms: _262  and  _264
REMARK  108  A    between atoms: _264  and  _265
REMARK  109  A    between atoms: _264  and  _267
REMARK  110  A    between atoms: _267  and  _268
REMARK  111  A    between atoms: _273  and  _275
REMARK  112  A    between atoms: _275  and  _276
REMARK  113  A    between atoms: _275  and  _278
REMARK  114  A    between atoms: _278  and  _279
REMARK  115  A    between atoms: _279  and  _280
REMARK  116  A    between atoms: _280  and  _281
REMARK  117  A    between atoms: _290  and  _292
REMARK  118  A    between atoms: _292  and  _293
REMARK  119  A    between atoms: _292  and  _295
REMARK  120  A    between atoms: _295  and  _296
REMARK  121  A    between atoms: _299  and  _301
REMARK  122  A    between atoms: _301  and  _302
REMARK  123  A    between atoms: _301  and  _304
REMARK  124  A    between atoms: _304  and  _305
REMARK  125  A    between atoms: _308  and  _310
REMARK  126  A    between atoms: _310  and  _311
REMARK  127  A    between atoms: _310  and  _313
REMARK  128  A    between atoms: _313  and  _314
REMARK  129  A    between atoms: _317  and  _319
REMARK  130  A    between atoms: _319  and  _320
REMARK  131  A    between atoms: _322  and  _324
REMARK  132  A    between atoms: _324  and  _325
REMARK  133  A    between atoms: _328  and  _330
REMARK  134  A    between atoms: _330  and  _331
REMARK  135  A    between atoms: _330  and  _333
REMARK  136  A    between atoms: _333  and  _334
REMARK  137  A    between atoms: _337  and  _339
REMARK  138  A    between atoms: _339  and  _340
REMARK  139  A    between atoms: _339  and  _342
REMARK  140  A    between atoms: _342  and  _343
REMARK  141  A    between atoms: _346  and  _348
REMARK  142  A    between atoms: _348  and  _349
REMARK  143  A    between atoms: _348  and  _351
REMARK  144  A    between atoms: _351  and  _352
REMARK  145  A    between atoms: _355  and  _357
REMARK  146  A    between atoms: _357  and  _358
REMARK  147  A    between atoms: _357  and  _360
REMARK  148  A    between atoms: _364  and  _365
REMARK  149  A    between atoms: _370  and  _372
REMARK  150  A    between atoms: _372  and  _373
REMARK  151  A    between atoms: _372  and  _375
REMARK  152  A    between atoms: _375  and  _376
REMARK  153  A    between atoms: _376  and  _377
REMARK  154  A    between atoms: _377  and  _378
REMARK  155  A    between atoms: _378  and  _379
REMARK  156  A    between atoms: _383  and  _385
REMARK  157  A    between atoms: _385  and  _386
REMARK  158  A    between atoms: _385  and  _388
REMARK  159  A    between atoms: _388  and  _389
REMARK  160  A    between atoms: _389  and  _390
REMARK  161  A    between atoms: _392  and  _394
REMARK  162  A    between atoms: _394  and  _395
REMARK  163  A    between atoms: _394  and  _397
REMARK  164  A    between atoms: _397  and  _398
REMARK  165  A    between atoms: _401  and  _403
REMARK  166  A    between atoms: _403  and  _404
REMARK  167  A    between atoms: _406  and  _408
REMARK  168  A    between atoms: _408  and  _409
REMARK  169  A    between atoms: _411  and  _413
REMARK  170  A    between atoms: _413  and  _414
REMARK  171  A    between atoms: _413  and  _416
REMARK  172  A    between atoms: _416  and  _417
REMARK  173  A    between atoms: _420  and  _422
REMARK  174  A    between atoms: _422  and  _423
REMARK  175  A    between atoms: _425  and  _427
REMARK  176  A    between atoms: _427  and  _428
REMARK  177  A    between atoms: _430  and  _432
REMARK  178  A    between atoms: _432  and  _433
REMARK  179  A    between atoms: _432  and  _435
REMARK  180  A    between atoms: _435  and  _436
REMARK  181  A    between atoms: _442  and  _444
REMARK  182  A    between atoms: _444  and  _445
REMARK  183  A    between atoms: _444  and  _447
REMARK  184  A    between atoms: _447  and  _448
REMARK  185  A    between atoms: _451  and  _453
REMARK  186  A    between atoms: _453  and  _454
REMARK  187  A    between atoms: _453  and  _456
REMARK  188  A    between atoms: _459  and  _461
REMARK  189  A    between atoms: _461  and  _462
REMARK  190  A    between atoms: _461  and  _464
REMARK  191  A    between atoms: _464  and  _465
REMARK  192  A    between atoms: _465  and  _466
REMARK  193  A    between atoms: _471  and  _473
REMARK  194  A    between atoms: _473  and  _474
REMARK  195  A    between atoms: _473  and  _476
REMARK  196  A    between atoms: _476  and  _477
REMARK  197  A    between atoms: _481  and  _482
REMARK  198  A    between atoms: _487  and  _489
REMARK  199  A    between atoms: _489  and  _490
REMARK  200  A    between atoms: _489  and  _492
REMARK  201  A    between atoms: _492  and  _493
REMARK  202  A    between atoms: _497  and  _498
REMARK  203  A    between atoms: _503  and  _505
REMARK  204  A    between atoms: _505  and  _506
REMARK  205  A    between atoms: _509  and  _511
REMARK  206  A    between atoms: _511  and  _512
REMARK  207  A    between atoms: _511  and  _514
REMARK  208  A    between atoms: _514  and  _515
REMARK  209  A    between atoms: _520  and  _522
REMARK  210  A    between atoms: _522  and  _523
REMARK  211  A    between atoms: _522  and  _525
REMARK  212  A    between atoms: _525  and  _526
REMARK  213  A    between atoms: _529  and  _531
REMARK  214  A    between atoms: _531  and  _532
REMARK  215  A    between atoms: _531  and  _534
REMARK  216  A    between atoms: _534  and  _535
REMARK  217  A    between atoms: _538  and  _540
REMARK  218  A    between atoms: _540  and  _541
REMARK  219  A    between atoms: _543  and  _545
REMARK  220  A    between atoms: _545  and  _546
REMARK  221  A    between atoms: _545  and  _548
REMARK  222  A    between atoms: _548  and  _549
REMARK  223  A    between atoms: _549  and  _550
REMARK  224  A    between atoms: _550  and  _551
REMARK  225  A    between atoms: _560  and  _562
REMARK  226  A    between atoms: _562  and  _563
REMARK  227  A    between atoms: _562  and  _565
REMARK  228  A    between atoms: _565  and  _566
REMARK                            x       y       z     vdW  Elec       q    Type
REMARK                         _______ _______ _______ _____ _____    ______ ____
ROOT
ATOM      1  O   HOH     1       7.095  23.894  18.339  0.00  0.00    +0.000 OA
ENDROOT
TORSDOF 0
REMARK  Name = ../refined-set-2016/2aoe/2aoe_pocket.pdb
REMARK  228 active torsions:
REMARK  status: ('A' for Active; 'I' for Inactive)
REMARK    1  A    between atoms: _1  and  _3
REMARK    2  A    between atoms: _3  and  _4
REMARK    3  A    between atoms: _3  and  _6
REMARK    4  A    between atoms: _6  and  _7
REMARK    5  A    between atoms: _7  and  _8
REMARK    6  A    between atoms: _8  and  _9
REMARK    7  A    between atoms: _18  and  _20
REMARK    8  A    between atoms: _20  and  _21
REMARK    9  A    between atoms: _20  and  _23
REMARK   10  A    between atoms: _23  and  _24
REMARK   11  A    between atoms: _27  and  _29
REMARK   12  A    between atoms: _29  and  _30
REMARK   13  A    between atoms: _29  and  _32
REMARK   14  A    between atoms: _32  and  _33
REMARK   15  A    between atoms: _36  and  _38
REMARK   16  A    between atoms: _38  and  _39
REMARK   17  A    between atoms: _38  and  _41
REMARK   18  A    between atoms: _41  and  _42
REMARK   19  A    between atoms: _45  and  _47
REMARK   20  A    between atoms: _47  and  _48
REMARK   21  A    between atoms: _50  and  _52
REMARK   22  A    between atoms: _52  and  _53
REMARK   23  A    between atoms: _56  and  _58
REMARK   24  A    between atoms: _58  and  _59
REMARK   25  A    between atoms: _58  and  _61
REMARK   26  A    between atoms: _61  and  _62
REMARK   27  A    between atoms: _65  and  _67
REMARK   28  A    between atoms: _67  and  _68
REMARK   29  A    between atoms: _67  and  _70
REMARK   30  A    between atoms: _70  and  _71
REMARK   31  A    between atoms: _74  and  _76
REMARK   32  A    between atoms: _76  and  _77
REMARK   33  A    between atoms: _76  and  _79
REMARK   34  A    between atoms: _79  and  _80
REMARK   35  A    between atoms: _83  and  _85
REMARK   36  A    between atoms: _85  and  _86
REMARK   37  A    between atoms: _85  and  _88
REMARK   38  A    between atoms: _91  and  _93
REMARK   39  A    between atoms: _93  and  _94
REMARK   40  A    between atoms: _93  and  _96
REMARK   41  A    between atoms: _97  and  _98
REMARK   42  A    between atoms: _98  and  _99
REMARK   43  A    between atoms: _99  and  _100
REMARK   44  A    between atoms: _104  and  _106
REMARK   45  A    between atoms: _106  and  _107
REMARK   46  A    between atoms: _106  and  _109
REMARK   47  A    between atoms: _109  and  _110
REMARK   48  A    between atoms: _110  and  _111
REMARK   49  A    between atoms: _113  and  _115
REMARK   50  A    between atoms: _115  and  _116
REMARK   51  A    between atoms: _115  and  _118
REMARK   52  A    between atoms: _118  and  _119
REMARK   53  A    between atoms: _122  and  _124
REMARK   54  A    between atoms: _124  and  _125
REMARK   55  A    between atoms: _127  and  _129
REMARK   56  A    between atoms: _129  and  _130
REMARK   57  A    between atoms: _132  and  _134
REMARK   58  A    between atoms: _134  and  _135
REMARK   59  A    between atoms: _134  and  _137
REMARK   60  A    between atoms: _137  and  _138
REMARK   61  A    between atoms: _141  and  _143
REMARK   62  A    between atoms: _143  and  _144
REMARK   63  A    between atoms: _146  and  _148
REMARK   64  A    between atoms: _148  and  _149
REMARK   65  A    between atoms: _151  and  _153
REMARK   66  A    between atoms: _153  and  _154
REMARK   67  A    between atoms: _153  and  _156
REMARK   68  A    between atoms: _156  and  _157
REMARK   69  A    between atoms: _163  and  _165
REMARK   70  A    between atoms: _165  and  _166
REMARK   71  A    between atoms: _165  and  _168
REMARK   72  A    between atoms: _168  and  _169
REMARK   73  A    between atoms: _172  and  _174
REMARK   74  A    between atoms: _174  and  _175
REMARK   75  A    between atoms: _174  and  _177
REMARK   76  A    between atoms: _180  and  _182
REMARK   77  A    between atoms: _182  and  _183
REMARK   78  A    between atoms: _182  and  _185
REMARK   79  A    between atoms: _185  and  _186
REMARK   80  A    between atoms: _189  and  _191
REMARK   81  A    between atoms: _191  and  _192
REMARK   82  A    between atoms: _191  and  _194
REMARK   83  A    between atoms: _194  and  _195
REMARK   84  A    between atoms: _199  and  _200
REMARK   85  A    between atoms: _205  and  _207
REMARK   86  A    between atoms: _207  and  _208
REMARK   87  A    between atoms: _211  and  _213
REMARK   88  A    between atoms: _213  and  _214
REMARK   89  A    between atoms: _213  and  _216
REMARK   90  A    between atoms: _216  and  _217
REMARK   91  A    between atoms: _222  and  _224
REMARK   92  A    between atoms: _224  and  _225
REMARK   93  A    between atoms: _224  and  _227
REMARK   94  A    between atoms: _227  and  _228
REMARK   95  A    between atoms: _231  and  _233
REMARK   96  A    between atoms: _233  and  _234
REMARK   97  A    between atoms: _233  and  _236
REMARK   98  A    between atoms: _236  and  _237
REMARK   99  A    between atoms: _240  and  _242
REMARK  100  A    between atoms: _242  and  _243
REMARK  101  A    between atoms: _245  and  _247
REMARK  102  A    between atoms: _247  and  _248
REMARK  103  A    between atoms: _247  and  _250
REMARK  104  A    between atoms: _250  and  _251
REMARK  105  A    between atoms: _251  and  _252
REMARK  106  A    between atoms: _252  and  _253
REMARK  107  A    between atoms: _262  and  _264
REMARK  108  A    between atoms: _264  and  _265
REMARK  109  A    between atoms: _264  and  _267
REMARK  110  A    between atoms: _267  and  _268
REMARK  111  A    between atoms: _273  and  _275
REMARK  112  A    between atoms: _275  and  _276
REMARK  113  A    between atoms: _275  and  _278
REMARK  114  A    between atoms: _278  and  _279
REMARK  115  A    between atoms: _279  and  _280
REMARK  116  A    between atoms: _280  and  _281
REMARK  117  A    between atoms: _290  and  _292
REMARK  118  A    between atoms: _292  and  _293
REMARK  119  A    between atoms: _292  and  _295
REMARK  120  A    between atoms: _295  and  _296
REMARK  121  A    between atoms: _299  and  _301
REMARK  122  A    between atoms: _301  and  _302
REMARK  123  A    between atoms: _301  and  _304
REMARK  124  A    between atoms: _304  and  _305
REMARK  125  A    between atoms: _308  and  _310
REMARK  126  A    between atoms: _310  and  _311
REMARK  127  A    between atoms: _310  and  _313
REMARK  128  A    between atoms: _313  and  _314
REMARK  129  A    between atoms: _317  and  _319
REMARK  130  A    between atoms: _319  and  _320
REMARK  131  A    between atoms: _322  and  _324
REMARK  132  A    between atoms: _324  and  _325
REMARK  133  A    between atoms: _328  and  _330
REMARK  134  A    between atoms: _330  and  _331
REMARK  135  A    between atoms: _330  and  _333
REMARK  136  A    between atoms: _333  and  _334
REMARK  137  A    between atoms: _337  and  _339
REMARK  138  A    between atoms: _339  and  _340
REMARK  139  A    between atoms: _339  and  _342
REMARK  140  A    between atoms: _342  and  _343
REMARK  141  A    between atoms: _346  and  _348
REMARK  142  A    between atoms: _348  and  _349
REMARK  143  A    between atoms: _348  and  _351
REMARK  144  A    between atoms: _351  and  _352
REMARK  145  A    between atoms: _355  and  _357
REMARK  146  A    between atoms: _357  and  _358
REMARK  147  A    between atoms: _357  and  _360
REMARK  148  A    between atoms: _364  and  _365
REMARK  149  A    between atoms: _370  and  _372
REMARK  150  A    between atoms: _372  and  _373
REMARK  151  A    between atoms: _372  and  _375
REMARK  152  A    between atoms: _375  and  _376
REMARK  153  A    between atoms: _376  and  _377
REMARK  154  A    between atoms: _377  and  _378
REMARK  155  A    between atoms: _378  and  _379
REMARK  156  A    between atoms: _383  and  _385
REMARK  157  A    between atoms: _385  and  _386
REMARK  158  A    between atoms: _385  and  _388
REMARK  159  A    between atoms: _388  and  _389
REMARK  160  A    between atoms: _389  and  _390
REMARK  161  A    between atoms: _392  and  _394
REMARK  162  A    between atoms: _394  and  _395
REMARK  163  A    between atoms: _394  and  _397
REMARK  164  A    between atoms: _397  and  _398
REMARK  165  A    between atoms: _401  and  _403
REMARK  166  A    between atoms: _403  and  _404
REMARK  167  A    between atoms: _406  and  _408
REMARK  168  A    between atoms: _408  and  _409
REMARK  169  A    between atoms: _411  and  _413
REMARK  170  A    between atoms: _413  and  _414
REMARK  171  A    between atoms: _413  and  _416
REMARK  172  A    between atoms: _416  and  _417
REMARK  173  A    between atoms: _420  and  _422
REMARK  174  A    between atoms: _422  and  _423
REMARK  175  A    between atoms: _425  and  _427
REMARK  176  A    between atoms: _427  and  _428
REMARK  177  A    between atoms: _430  and  _432
REMARK  178  A    between atoms: _432  and  _433
REMARK  179  A    between atoms: _432  and  _435
REMARK  180  A    between atoms: _435  and  _436
REMARK  181  A    between atoms: _442  and  _444
REMARK  182  A    between atoms: _444  and  _445
REMARK  183  A    between atoms: _444  and  _447
REMARK  184  A    between atoms: _447  and  _448
REMARK  185  A    between atoms: _451  and  _453
REMARK  186  A    between atoms: _453  and  _454
REMARK  187  A    between atoms: _453  and  _456
REMARK  188  A    between atoms: _459  and  _461
REMARK  189  A    between atoms: _461  and  _462
REMARK  190  A    between atoms: _461  and  _464
REMARK  191  A    between atoms: _464  and  _465
REMARK  192  A    between atoms: _465  and  _466
REMARK  193  A    between atoms: _471  and  _473
REMARK  194  A    between atoms: _473  and  _474
REMARK  195  A    between atoms: _473  and  _476
REMARK  196  A    between atoms: _476  and  _477
REMARK  197  A    between atoms: _481  and  _482
REMARK  198  A    between atoms: _487  and  _489
REMARK  199  A    between atoms: _489  and  _490
REMARK  200  A    between atoms: _489  and  _492
REMARK  201  A    between atoms: _492  and  _493
REMARK  202  A    between atoms: _497  and  _498
REMARK  203  A    between atoms: _503  and  _505
REMARK  204  A    between atoms: _505  and  _506
REMARK  205  A    between atoms: _509  and  _511
REMARK  206  A    between atoms: _511  and  _512
REMARK  207  A    between atoms: _511  and  _514
REMARK  208  A    between atoms: _514  and  _515
REMARK  209  A    between atoms: _520  and  _522
REMARK  210  A    between atoms: _522  and  _523
REMARK  211  A    between atoms: _522  and  _525
REMARK  212  A    between atoms: _525  and  _526
REMARK  213  A    between atoms: _529  and  _531
REMARK  214  A    between atoms: _531  and  _532
REMARK  215  A    between atoms: _531  and  _534
REMARK  216  A    between atoms: _534  and  _535
REMARK  217  A    between atoms: _538  and  _540
REMARK  218  A    between atoms: _540  and  _541
REMARK  219  A    between atoms: _543  and  _545
REMARK  220  A    between atoms: _545  and  _546
REMARK  221  A    between atoms: _545  and  _548
REMARK  222  A    between atoms: _548  and  _549
REMARK  223  A    between atoms: _549  and  _550
REMARK  224  A    between atoms: _550  and  _551
REMARK  225  A    between atoms: _560  and  _562
REMARK  226  A    between atoms: _562  and  _563
REMARK  227  A    between atoms: _562  and  _565
REMARK  228  A    between atoms: _565  and  _566
REMARK                            x       y       z     vdW  Elec       q    Type
REMARK                         _______ _______ _______ _____ _____    ______ ____
ROOT
ATOM      1  O   HOH     1       8.475  21.868  16.924  0.00  0.00    +0.000 OA
ENDROOT
TORSDOF 0
REMARK  Name = ../refined-set-2016/2aoe/2aoe_pocket.pdb
REMARK  228 active torsions:
REMARK  status: ('A' for Active; 'I' for Inactive)
REMARK    1  A    between atoms: _1  and  _3
REMARK    2  A    between atoms: _3  and  _4
REMARK    3  A    between atoms: _3  and  _6
REMARK    4  A    between atoms: _6  and  _7
REMARK    5  A    between atoms: _7  and  _8
REMARK    6  A    between atoms: _8  and  _9
REMARK    7  A    between atoms: _18  and  _20
REMARK    8  A    between atoms: _20  and  _21
REMARK    9  A    between atoms: _20  and  _23
REMARK   10  A    between atoms: _23  and  _24
REMARK   11  A    between atoms: _27  and  _29
REMARK   12  A    between atoms: _29  and  _30
REMARK   13  A    between atoms: _29  and  _32
REMARK   14  A    between atoms: _32  and  _33
REMARK   15  A    between atoms: _36  and  _38
REMARK   16  A    between atoms: _38  and  _39
REMARK   17  A    between atoms: _38  and  _41
REMARK   18  A    between atoms: _41  and  _42
REMARK   19  A    between atoms: _45  and  _47
REMARK   20  A    between atoms: _47  and  _48
REMARK   21  A    between atoms: _50  and  _52
REMARK   22  A    between atoms: _52  and  _53
REMARK   23  A    between atoms: _56  and  _58
REMARK   24  A    between atoms: _58  and  _59
REMARK   25  A    between atoms: _58  and  _61
REMARK   26  A    between atoms: _61  and  _62
REMARK   27  A    between atoms: _65  and  _67
REMARK   28  A    between atoms: _67  and  _68
REMARK   29  A    between atoms: _67  and  _70
REMARK   30  A    between atoms: _70  and  _71
REMARK   31  A    between atoms: _74  and  _76
REMARK   32  A    between atoms: _76  and  _77
REMARK   33  A    between atoms: _76  and  _79
REMARK   34  A    between atoms: _79  and  _80
REMARK   35  A    between atoms: _83  and  _85
REMARK   36  A    between atoms: _85  and  _86
REMARK   37  A    between atoms: _85  and  _88
REMARK   38  A    between atoms: _91  and  _93
REMARK   39  A    between atoms: _93  and  _94
REMARK   40  A    between atoms: _93  and  _96
REMARK   41  A    between atoms: _97  and  _98
REMARK   42  A    between atoms: _98  and  _99
REMARK   43  A    between atoms: _99  and  _100
REMARK   44  A    between atoms: _104  and  _106
REMARK   45  A    between atoms: _106  and  _107
REMARK   46  A    between atoms: _106  and  _109
REMARK   47  A    between atoms: _109  and  _110
REMARK   48  A    between atoms: _110  and  _111
REMARK   49  A    between atoms: _113  and  _115
REMARK   50  A    between atoms: _115  and  _116
REMARK   51  A    between atoms: _115  and  _118
REMARK   52  A    between atoms: _118  and  _119
REMARK   53  A    between atoms: _122  and  _124
REMARK   54  A    between atoms: _124  and  _125
REMARK   55  A    between atoms: _127  and  _129
REMARK   56  A    between atoms: _129  and  _130
REMARK   57  A    between atoms: _132  and  _134
REMARK   58  A    between atoms: _134  and  _135
REMARK   59  A    between atoms: _134  and  _137
REMARK   60  A    between atoms: _137  and  _138
REMARK   61  A    between atoms: _141  and  _143
REMARK   62  A    between atoms: _143  and  _144
REMARK   63  A    between atoms: _146  and  _148
REMARK   64  A    between atoms: _148  and  _149
REMARK   65  A    between atoms: _151  and  _153
REMARK   66  A    between atoms: _153  and  _154
REMARK   67  A    between atoms: _153  and  _156
REMARK   68  A    between atoms: _156  and  _157
REMARK   69  A    between atoms: _163  and  _165
REMARK   70  A    between atoms: _165  and  _166
REMARK   71  A    between atoms: _165  and  _168
REMARK   72  A    between atoms: _168  and  _169
REMARK   73  A    between atoms: _172  and  _174
REMARK   74  A    between atoms: _174  and  _175
REMARK   75  A    between atoms: _174  and  _177
REMARK   76  A    between atoms: _180  and  _182
REMARK   77  A    between atoms: _182  and  _183
REMARK   78  A    between atoms: _182  and  _185
REMARK   79  A    between atoms: _185  and  _186
REMARK   80  A    between atoms: _189  and  _191
REMARK   81  A    between atoms: _191  and  _192
REMARK   82  A    between atoms: _191  and  _194
REMARK   83  A    between atoms: _194  and  _195
REMARK   84  A    between atoms: _199  and  _200
REMARK   85  A    between atoms: _205  and  _207
REMARK   86  A    between atoms: _207  and  _208
REMARK   87  A    between atoms: _211  and  _213
REMARK   88  A    between atoms: _213  and  _214
REMARK   89  A    between atoms: _213  and  _216
REMARK   90  A    between atoms: _216  and  _217
REMARK   91  A    between atoms: _222  and  _224
REMARK   92  A    between atoms: _224  and  _225
REMARK   93  A    between atoms: _224  and  _227
REMARK   94  A    between atoms: _227  and  _228
REMARK   95  A    between atoms: _231  and  _233
REMARK   96  A    between atoms: _233  and  _234
REMARK   97  A    between atoms: _233  and  _236
REMARK   98  A    between atoms: _236  and  _237
REMARK   99  A    between atoms: _240  and  _242
REMARK  100  A    between atoms: _242  and  _243
REMARK  101  A    between atoms: _245  and  _247
REMARK  102  A    between atoms: _247  and  _248
REMARK  103  A    between atoms: _247  and  _250
REMARK  104  A    between atoms: _250  and  _251
REMARK  105  A    between atoms: _251  and  _252
REMARK  106  A    between atoms: _252  and  _253
REMARK  107  A    between atoms: _262  and  _264
REMARK  108  A    between atoms: _264  and  _265
REMARK  109  A    between atoms: _264  and  _267
REMARK  110  A    between atoms: _267  and  _268
REMARK  111  A    between atoms: _273  and  _275
REMARK  112  A    between atoms: _275  and  _276
REMARK  113  A    between atoms: _275  and  _278
REMARK  114  A    between atoms: _278  and  _279
REMARK  115  A    between atoms: _279  and  _280
REMARK  116  A    between atoms: _280  and  _281
REMARK  117  A    between atoms: _290  and  _292
REMARK  118  A    between atoms: _292  and  _293
REMARK  119  A    between atoms: _292  and  _295
REMARK  120  A    between atoms: _295  and  _296
REMARK  121  A    between atoms: _299  and  _301
REMARK  122  A    between atoms: _301  and  _302
REMARK  123  A    between atoms: _301  and  _304
REMARK  124  A    between atoms: _304  and  _305
REMARK  125  A    between atoms: _308  and  _310
REMARK  126  A    between atoms: _310  and  _311
REMARK  127  A    between atoms: _310  and  _313
REMARK  128  A    between atoms: _313  and  _314
REMARK  129  A    between atoms: _317  and  _319
REMARK  130  A    between atoms: _319  and  _320
REMARK  131  A    between atoms: _322  and  _324
REMARK  132  A    between atoms: _324  and  _325
REMARK  133  A    between atoms: _328  and  _330
REMARK  134  A    between atoms: _330  and  _331
REMARK  135  A    between atoms: _330  and  _333
REMARK  136  A    between atoms: _333  and  _334
REMARK  137  A    between atoms: _337  and  _339
REMARK  138  A    between atoms: _339  and  _340
REMARK  139  A    between atoms: _339  and  _342
REMARK  140  A    between atoms: _342  and  _343
REMARK  141  A    between atoms: _346  and  _348
REMARK  142  A    between atoms: _348  and  _349
REMARK  143  A    between atoms: _348  and  _351
REMARK  144  A    between atoms: _351  and  _352
REMARK  145  A    between atoms: _355  and  _357
REMARK  146  A    between atoms: _357  and  _358
REMARK  147  A    between atoms: _357  and  _360
REMARK  148  A    between atoms: _364  and  _365
REMARK  149  A    between atoms: _370  and  _372
REMARK  150  A    between atoms: _372  and  _373
REMARK  151  A    between atoms: _372  and  _375
REMARK  152  A    between atoms: _375  and  _376
REMARK  153  A    between atoms: _376  and  _377
REMARK  154  A    between atoms: _377  and  _378
REMARK  155  A    between atoms: _378  and  _379
REMARK  156  A    between atoms: _383  and  _385
REMARK  157  A    between atoms: _385  and  _386
REMARK  158  A    between atoms: _385  and  _388
REMARK  159  A    between atoms: _388  and  _389
REMARK  160  A    between atoms: _389  and  _390
REMARK  161  A    between atoms: _392  and  _394
REMARK  162  A    between atoms: _394  and  _395
REMARK  163  A    between atoms: _394  and  _397
REMARK  164  A    between atoms: _397  and  _398
REMARK  165  A    between atoms: _401  and  _403
REMARK  166  A    between atoms: _403  and  _404
REMARK  167  A    between atoms: _406  and  _408
REMARK  168  A    between atoms: _408  and  _409
REMARK  169  A    between atoms: _411  and  _413
REMARK  170  A    between atoms: _413  and  _414
REMARK  171  A    between atoms: _413  and  _416
REMARK  172  A    between atoms: _416  and  _417
REMARK  173  A    between atoms: _420  and  _422
REMARK  174  A    between atoms: _422  and  _423
REMARK  175  A    between atoms: _425  and  _427
REMARK  176  A    between atoms: _427  and  _428
REMARK  177  A    between atoms: _430  and  _432
REMARK  178  A    between atoms: _432  and  _433
REMARK  179  A    between atoms: _432  and  _435
REMARK  180  A    between atoms: _435  and  _436
REMARK  181  A    between atoms: _442  and  _444
REMARK  182  A    between atoms: _444  and  _445
REMARK  183  A    between atoms: _444  and  _447
REMARK  184  A    between atoms: _447  and  _448
REMARK  185  A    between atoms: _451  and  _453
REMARK  186  A    between atoms: _453  and  _454
REMARK  187  A    between atoms: _453  and  _456
REMARK  188  A    between atoms: _459  and  _461
REMARK  189  A    between atoms: _461  and  _462
REMARK  190  A    between atoms: _461  and  _464
REMARK  191  A    between atoms: _464  and  _465
REMARK  192  A    between atoms: _465  and  _466
REMARK  193  A    between atoms: _471  and  _473
REMARK  194  A    between atoms: _473  and  _474
REMARK  195  A    between atoms: _473  and  _476
REMARK  196  A    between atoms: _476  and  _477
REMARK  197  A    between atoms: _481  and  _482
REMARK  198  A    between atoms: _487  and  _489
REMARK  199  A    between atoms: _489  and  _490
REMARK  200  A    between atoms: _489  and  _492
REMARK  201  A    between atoms: _492  and  _493
REMARK  202  A    between atoms: _497  and  _498
REMARK  203  A    between atoms: _503  and  _505
REMARK  204  A    between atoms: _505  and  _506
REMARK  205  A    between atoms: _509  and  _511
REMARK  206  A    between atoms: _511  and  _512
REMARK  207  A    between atoms: _511  and  _514
REMARK  208  A    between atoms: _514  and  _515
REMARK  209  A    between atoms: _520  and  _522
REMARK  210  A    between atoms: _522  and  _523
REMARK  211  A    between atoms: _522  and  _525
REMARK  212  A    between atoms: _525  and  _526
REMARK  213  A    between atoms: _529  and  _531
REMARK  214  A    between atoms: _531  and  _532
REMARK  215  A    between atoms: _531  and  _534
REMARK  216  A    between atoms: _534  and  _535
REMARK  217  A    between atoms: _538  and  _540
REMARK  218  A    between atoms: _540  and  _541
REMARK  219  A    between atoms: _543  and  _545
REMARK  220  A    between atoms: _545  and  _546
REMARK  221  A    between atoms: _545  and  _548
REMARK  222  A    between atoms: _548  and  _549
REMARK  223  A    between atoms: _549  and  _550
REMARK  224  A    between atoms: _550  and  _551
REMARK  225  A    between atoms: _560  and  _562
REMARK  226  A    between atoms: _562  and  _563
REMARK  227  A    between atoms: _562  and  _565
REMARK  228  A    between atoms: _565  and  _566
REMARK                            x       y       z     vdW  Elec       q    Type
REMARK                         _______ _______ _______ _____ _____    ______ ____
ROOT
ATOM      1  O   HOH     1      25.495  25.975  16.035  0.00  0.00    +0.000 OA
ENDROOT
TORSDOF 0
REMARK  Name = ../refined-set-2016/2aoe/2aoe_pocket.pdb
REMARK  228 active torsions:
REMARK  status: ('A' for Active; 'I' for Inactive)
REMARK    1  A    between atoms: _1  and  _3
REMARK    2  A    between atoms: _3  and  _4
REMARK    3  A    between atoms: _3  and  _6
REMARK    4  A    between atoms: _6  and  _7
REMARK    5  A    between atoms: _7  and  _8
REMARK    6  A    between atoms: _8  and  _9
REMARK    7  A    between atoms: _18  and  _20
REMARK    8  A    between atoms: _20  and  _21
REMARK    9  A    between atoms: _20  and  _23
REMARK   10  A    between atoms: _23  and  _24
REMARK   11  A    between atoms: _27  and  _29
REMARK   12  A    between atoms: _29  and  _30
REMARK   13  A    between atoms: _29  and  _32
REMARK   14  A    between atoms: _32  and  _33
REMARK   15  A    between atoms: _36  and  _38
REMARK   16  A    between atoms: _38  and  _39
REMARK   17  A    between atoms: _38  and  _41
REMARK   18  A    between atoms: _41  and  _42
REMARK   19  A    between atoms: _45  and  _47
REMARK   20  A    between atoms: _47  and  _48
REMARK   21  A    between atoms: _50  and  _52
REMARK   22  A    between atoms: _52  and  _53
REMARK   23  A    between atoms: _56  and  _58
REMARK   24  A    between atoms: _58  and  _59
REMARK   25  A    between atoms: _58  and  _61
REMARK   26  A    between atoms: _61  and  _62
REMARK   27  A    between atoms: _65  and  _67
REMARK   28  A    between atoms: _67  and  _68
REMARK   29  A    between atoms: _67  and  _70
REMARK   30  A    between atoms: _70  and  _71
REMARK   31  A    between atoms: _74  and  _76
REMARK   32  A    between atoms: _76  and  _77
REMARK   33  A    between atoms: _76  and  _79
REMARK   34  A    between atoms: _79  and  _80
REMARK   35  A    between atoms: _83  and  _85
REMARK   36  A    between atoms: _85  and  _86
REMARK   37  A    between atoms: _85  and  _88
REMARK   38  A    between atoms: _91  and  _93
REMARK   39  A    between atoms: _93  and  _94
REMARK   40  A    between atoms: _93  and  _96
REMARK   41  A    between atoms: _97  and  _98
REMARK   42  A    between atoms: _98  and  _99
REMARK   43  A    between atoms: _99  and  _100
REMARK   44  A    between atoms: _104  and  _106
REMARK   45  A    between atoms: _106  and  _107
REMARK   46  A    between atoms: _106  and  _109
REMARK   47  A    between atoms: _109  and  _110
REMARK   48  A    between atoms: _110  and  _111
REMARK   49  A    between atoms: _113  and  _115
REMARK   50  A    between atoms: _115  and  _116
REMARK   51  A    between atoms: _115  and  _118
REMARK   52  A    between atoms: _118  and  _119
REMARK   53  A    between atoms: _122  and  _124
REMARK   54  A    between atoms: _124  and  _125
REMARK   55  A    between atoms: _127  and  _129
REMARK   56  A    between atoms: _129  and  _130
REMARK   57  A    between atoms: _132  and  _134
REMARK   58  A    between atoms: _134  and  _135
REMARK   59  A    between atoms: _134  and  _137
REMARK   60  A    between atoms: _137  and  _138
REMARK   61  A    between atoms: _141  and  _143
REMARK   62  A    between atoms: _143  and  _144
REMARK   63  A    between atoms: _146  and  _148
REMARK   64  A    between atoms: _148  and  _149
REMARK   65  A    between atoms: _151  and  _153
REMARK   66  A    between atoms: _153  and  _154
REMARK   67  A    between atoms: _153  and  _156
REMARK   68  A    between atoms: _156  and  _157
REMARK   69  A    between atoms: _163  and  _165
REMARK   70  A    between atoms: _165  and  _166
REMARK   71  A    between atoms: _165  and  _168
REMARK   72  A    between atoms: _168  and  _169
REMARK   73  A    between atoms: _172  and  _174
REMARK   74  A    between atoms: _174  and  _175
REMARK   75  A    between atoms: _174  and  _177
REMARK   76  A    between atoms: _180  and  _182
REMARK   77  A    between atoms: _182  and  _183
REMARK   78  A    between atoms: _182  and  _185
REMARK   79  A    between atoms: _185  and  _186
REMARK   80  A    between atoms: _189  and  _191
REMARK   81  A    between atoms: _191  and  _192
REMARK   82  A    between atoms: _191  and  _194
REMARK   83  A    between atoms: _194  and  _195
REMARK   84  A    between atoms: _199  and  _200
REMARK   85  A    between atoms: _205  and  _207
REMARK   86  A    between atoms: _207  and  _208
REMARK   87  A    between atoms: _211  and  _213
REMARK   88  A    between atoms: _213  and  _214
REMARK   89  A    between atoms: _213  and  _216
REMARK   90  A    between atoms: _216  and  _217
REMARK   91  A    between atoms: _222  and  _224
REMARK   92  A    between atoms: _224  and  _225
REMARK   93  A    between atoms: _224  and  _227
REMARK   94  A    between atoms: _227  and  _228
REMARK   95  A    between atoms: _231  and  _233
REMARK   96  A    between atoms: _233  and  _234
REMARK   97  A    between atoms: _233  and  _236
REMARK   98  A    between atoms: _236  and  _237
REMARK   99  A    between atoms: _240  and  _242
REMARK  100  A    between atoms: _242  and  _243
REMARK  101  A    between atoms: _245  and  _247
REMARK  102  A    between atoms: _247  and  _248
REMARK  103  A    between atoms: _247  and  _250
REMARK  104  A    between atoms: _250  and  _251
REMARK  105  A    between atoms: _251  and  _252
REMARK  106  A    between atoms: _252  and  _253
REMARK  107  A    between atoms: _262  and  _264
REMARK  108  A    between atoms: _264  and  _265
REMARK  109  A    between atoms: _264  and  _267
REMARK  110  A    between atoms: _267  and  _268
REMARK  111  A    between atoms: _273  and  _275
REMARK  112  A    between atoms: _275  and  _276
REMARK  113  A    between atoms: _275  and  _278
REMARK  114  A    between atoms: _278  and  _279
REMARK  115  A    between atoms: _279  and  _280
REMARK  116  A    between atoms: _280  and  _281
REMARK  117  A    between atoms: _290  and  _292
REMARK  118  A    between atoms: _292  and  _293
REMARK  119  A    between atoms: _292  and  _295
REMARK  120  A    between atoms: _295  and  _296
REMARK  121  A    between atoms: _299  and  _301
REMARK  122  A    between atoms: _301  and  _302
REMARK  123  A    between atoms: _301  and  _304
REMARK  124  A    between atoms: _304  and  _305
REMARK  125  A    between atoms: _308  and  _310
REMARK  126  A    between atoms: _310  and  _311
REMARK  127  A    between atoms: _310  and  _313
REMARK  128  A    between atoms: _313  and  _314
REMARK  129  A    between atoms: _317  and  _319
REMARK  130  A    between atoms: _319  and  _320
REMARK  131  A    between atoms: _322  and  _324
REMARK  132  A    between atoms: _324  and  _325
REMARK  133  A    between atoms: _328  and  _330
REMARK  134  A    between atoms: _330  and  _331
REMARK  135  A    between atoms: _330  and  _333
REMARK  136  A    between atoms: _333  and  _334
REMARK  137  A    between atoms: _337  and  _339
REMARK  138  A    between atoms: _339  and  _340
REMARK  139  A    between atoms: _339  and  _342
REMARK  140  A    between atoms: _342  and  _343
REMARK  141  A    between atoms: _346  and  _348
REMARK  142  A    between atoms: _348  and  _349
REMARK  143  A    between atoms: _348  and  _351
REMARK  144  A    between atoms: _351  and  _352
REMARK  145  A    between atoms: _355  and  _357
REMARK  146  A    between atoms: _357  and  _358
REMARK  147  A    between atoms: _357  and  _360
REMARK  148  A    between atoms: _364  and  _365
REMARK  149  A    between atoms: _370  and  _372
REMARK  150  A    between atoms: _372  and  _373
REMARK  151  A    between atoms: _372  and  _375
REMARK  152  A    between atoms: _375  and  _376
REMARK  153  A    between atoms: _376  and  _377
REMARK  154  A    between atoms: _377  and  _378
REMARK  155  A    between atoms: _378  and  _379
REMARK  156  A    between atoms: _383  and  _385
REMARK  157  A    between atoms: _385  and  _386
REMARK  158  A    between atoms: _385  and  _388
REMARK  159  A    between atoms: _388  and  _389
REMARK  160  A    between atoms: _389  and  _390
REMARK  161  A    between atoms: _392  and  _394
REMARK  162  A    between atoms: _394  and  _395
REMARK  163  A    between atoms: _394  and  _397
REMARK  164  A    between atoms: _397  and  _398
REMARK  165  A    between atoms: _401  and  _403
REMARK  166  A    between atoms: _403  and  _404
REMARK  167  A    between atoms: _406  and  _408
REMARK  168  A    between atoms: _408  and  _409
REMARK  169  A    between atoms: _411  and  _413
REMARK  170  A    between atoms: _413  and  _414
REMARK  171  A    between atoms: _413  and  _416
REMARK  172  A    between atoms: _416  and  _417
REMARK  173  A    between atoms: _420  and  _422
REMARK  174  A    between atoms: _422  and  _423
REMARK  175  A    between atoms: _425  and  _427
REMARK  176  A    between atoms: _427  and  _428
REMARK  177  A    between atoms: _430  and  _432
REMARK  178  A    between atoms: _432  and  _433
REMARK  179  A    between atoms: _432  and  _435
REMARK  180  A    between atoms: _435  and  _436
REMARK  181  A    between atoms: _442  and  _444
REMARK  182  A    between atoms: _444  and  _445
REMARK  183  A    between atoms: _444  and  _447
REMARK  184  A    between atoms: _447  and  _448
REMARK  185  A    between atoms: _451  and  _453
REMARK  186  A    between atoms: _453  and  _454
REMARK  187  A    between atoms: _453  and  _456
REMARK  188  A    between atoms: _459  and  _461
REMARK  189  A    between atoms: _461  and  _462
REMARK  190  A    between atoms: _461  and  _464
REMARK  191  A    between atoms: _464  and  _465
REMARK  192  A    between atoms: _465  and  _466
REMARK  193  A    between atoms: _471  and  _473
REMARK  194  A    between atoms: _473  and  _474
REMARK  195  A    between atoms: _473  and  _476
REMARK  196  A    between atoms: _476  and  _477
REMARK  197  A    between atoms: _481  and  _482
REMARK  198  A    between atoms: _487  and  _489
REMARK  199  A    between atoms: _489  and  _490
REMARK  200  A    between atoms: _489  and  _492
REMARK  201  A    between atoms: _492  and  _493
REMARK  202  A    between atoms: _497  and  _498
REMARK  203  A    between atoms: _503  and  _505
REMARK  204  A    between atoms: _505  and  _506
REMARK  205  A    between atoms: _509  and  _511
REMARK  206  A    between atoms: _511  and  _512
REMARK  207  A    between atoms: _511  and  _514
REMARK  208  A    between atoms: _514  and  _515
REMARK  209  A    between atoms: _520  and  _522
REMARK  210  A    between atoms: _522  and  _523
REMARK  211  A    between atoms: _522  and  _525
REMARK  212  A    between atoms: _525  and  _526
REMARK  213  A    between atoms: _529  and  _531
REMARK  214  A    between atoms: _531  and  _532
REMARK  215  A    between atoms: _531  and  _534
REMARK  216  A    between atoms: _534  and  _535
REMARK  217  A    between atoms: _538  and  _540
REMARK  218  A    between atoms: _540  and  _541
REMARK  219  A    between atoms: _543  and  _545
REMARK  220  A    between atoms: _545  and  _546
REMARK  221  A    between atoms: _545  and  _548
REMARK  222  A    between atoms: _548  and  _549
REMARK  223  A    between atoms: _549  and  _550
REMARK  224  A    between atoms: _550  and  _551
REMARK  225  A    between atoms: _560  and  _562
REMARK  226  A    between atoms: _562  and  _563
REMARK  227  A    between atoms: _562  and  _565
REMARK  228  A    between atoms: _565  and  _566
REMARK                            x       y       z     vdW  Elec       q    Type
REMARK                         _______ _______ _______ _____ _____    ______ ____
ROOT
ATOM      1  O   HOH     1       9.377   7.392  18.777  0.00  0.00    +0.000 OA
ENDROOT
TORSDOF 0
REMARK  Name = ../refined-set-2016/2aoe/2aoe_pocket.pdb
REMARK  228 active torsions:
REMARK  status: ('A' for Active; 'I' for Inactive)
REMARK    1  A    between atoms: _1  and  _3
REMARK    2  A    between atoms: _3  and  _4
REMARK    3  A    between atoms: _3  and  _6
REMARK    4  A    between atoms: _6  and  _7
REMARK    5  A    between atoms: _7  and  _8
REMARK    6  A    between atoms: _8  and  _9
REMARK    7  A    between atoms: _18  and  _20
REMARK    8  A    between atoms: _20  and  _21
REMARK    9  A    between atoms: _20  and  _23
REMARK   10  A    between atoms: _23  and  _24
REMARK   11  A    between atoms: _27  and  _29
REMARK   12  A    between atoms: _29  and  _30
REMARK   13  A    between atoms: _29  and  _32
REMARK   14  A    between atoms: _32  and  _33
REMARK   15  A    between atoms: _36  and  _38
REMARK   16  A    between atoms: _38  and  _39
REMARK   17  A    between atoms: _38  and  _41
REMARK   18  A    between atoms: _41  and  _42
REMARK   19  A    between atoms: _45  and  _47
REMARK   20  A    between atoms: _47  and  _48
REMARK   21  A    between atoms: _50  and  _52
REMARK   22  A    between atoms: _52  and  _53
REMARK   23  A    between atoms: _56  and  _58
REMARK   24  A    between atoms: _58  and  _59
REMARK   25  A    between atoms: _58  and  _61
REMARK   26  A    between atoms: _61  and  _62
REMARK   27  A    between atoms: _65  and  _67
REMARK   28  A    between atoms: _67  and  _68
REMARK   29  A    between atoms: _67  and  _70
REMARK   30  A    between atoms: _70  and  _71
REMARK   31  A    between atoms: _74  and  _76
REMARK   32  A    between atoms: _76  and  _77
REMARK   33  A    between atoms: _76  and  _79
REMARK   34  A    between atoms: _79  and  _80
REMARK   35  A    between atoms: _83  and  _85
REMARK   36  A    between atoms: _85  and  _86
REMARK   37  A    between atoms: _85  and  _88
REMARK   38  A    between atoms: _91  and  _93
REMARK   39  A    between atoms: _93  and  _94
REMARK   40  A    between atoms: _93  and  _96
REMARK   41  A    between atoms: _97  and  _98
REMARK   42  A    between atoms: _98  and  _99
REMARK   43  A    between atoms: _99  and  _100
REMARK   44  A    between atoms: _104  and  _106
REMARK   45  A    between atoms: _106  and  _107
REMARK   46  A    between atoms: _106  and  _109
REMARK   47  A    between atoms: _109  and  _110
REMARK   48  A    between atoms: _110  and  _111
REMARK   49  A    between atoms: _113  and  _115
REMARK   50  A    between atoms: _115  and  _116
REMARK   51  A    between atoms: _115  and  _118
REMARK   52  A    between atoms: _118  and  _119
REMARK   53  A    between atoms: _122  and  _124
REMARK   54  A    between atoms: _124  and  _125
REMARK   55  A    between atoms: _127  and  _129
REMARK   56  A    between atoms: _129  and  _130
REMARK   57  A    between atoms: _132  and  _134
REMARK   58  A    between atoms: _134  and  _135
REMARK   59  A    between atoms: _134  and  _137
REMARK   60  A    between atoms: _137  and  _138
REMARK   61  A    between atoms: _141  and  _143
REMARK   62  A    between atoms: _143  and  _144
REMARK   63  A    between atoms: _146  and  _148
REMARK   64  A    between atoms: _148  and  _149
REMARK   65  A    between atoms: _151  and  _153
REMARK   66  A    between atoms: _153  and  _154
REMARK   67  A    between atoms: _153  and  _156
REMARK   68  A    between atoms: _156  and  _157
REMARK   69  A    between atoms: _163  and  _165
REMARK   70  A    between atoms: _165  and  _166
REMARK   71  A    between atoms: _165  and  _168
REMARK   72  A    between atoms: _168  and  _169
REMARK   73  A    between atoms: _172  and  _174
REMARK   74  A    between atoms: _174  and  _175
REMARK   75  A    between atoms: _174  and  _177
REMARK   76  A    between atoms: _180  and  _182
REMARK   77  A    between atoms: _182  and  _183
REMARK   78  A    between atoms: _182  and  _185
REMARK   79  A    between atoms: _185  and  _186
REMARK   80  A    between atoms: _189  and  _191
REMARK   81  A    between atoms: _191  and  _192
REMARK   82  A    between atoms: _191  and  _194
REMARK   83  A    between atoms: _194  and  _195
REMARK   84  A    between atoms: _199  and  _200
REMARK   85  A    between atoms: _205  and  _207
REMARK   86  A    between atoms: _207  and  _208
REMARK   87  A    between atoms: _211  and  _213
REMARK   88  A    between atoms: _213  and  _214
REMARK   89  A    between atoms: _213  and  _216
REMARK   90  A    between atoms: _216  and  _217
REMARK   91  A    between atoms: _222  and  _224
REMARK   92  A    between atoms: _224  and  _225
REMARK   93  A    between atoms: _224  and  _227
REMARK   94  A    between atoms: _227  and  _228
REMARK   95  A    between atoms: _231  and  _233
REMARK   96  A    between atoms: _233  and  _234
REMARK   97  A    between atoms: _233  and  _236
REMARK   98  A    between atoms: _236  and  _237
REMARK   99  A    between atoms: _240  and  _242
REMARK  100  A    between atoms: _242  and  _243
REMARK  101  A    between atoms: _245  and  _247
REMARK  102  A    between atoms: _247  and  _248
REMARK  103  A    between atoms: _247  and  _250
REMARK  104  A    between atoms: _250  and  _251
REMARK  105  A    between atoms: _251  and  _252
REMARK  106  A    between atoms: _252  and  _253
REMARK  107  A    between atoms: _262  and  _264
REMARK  108  A    between atoms: _264  and  _265
REMARK  109  A    between atoms: _264  and  _267
REMARK  110  A    between atoms: _267  and  _268
REMARK  111  A    between atoms: _273  and  _275
REMARK  112  A    between atoms: _275  and  _276
REMARK  113  A    between atoms: _275  and  _278
REMARK  114  A    between atoms: _278  and  _279
REMARK  115  A    between atoms: _279  and  _280
REMARK  116  A    between atoms: _280  and  _281
REMARK  117  A    between atoms: _290  and  _292
REMARK  118  A    between atoms: _292  and  _293
REMARK  119  A    between atoms: _292  and  _295
REMARK  120  A    between atoms: _295  and  _296
REMARK  121  A    between atoms: _299  and  _301
REMARK  122  A    between atoms: _301  and  _302
REMARK  123  A    between atoms: _301  and  _304
REMARK  124  A    between atoms: _304  and  _305
REMARK  125  A    between atoms: _308  and  _310
REMARK  126  A    between atoms: _310  and  _311
REMARK  127  A    between atoms: _310  and  _313
REMARK  128  A    between atoms: _313  and  _314
REMARK  129  A    between atoms: _317  and  _319
REMARK  130  A    between atoms: _319  and  _320
REMARK  131  A    between atoms: _322  and  _324
REMARK  132  A    between atoms: _324  and  _325
REMARK  133  A    between atoms: _328  and  _330
REMARK  134  A    between atoms: _330  and  _331
REMARK  135  A    between atoms: _330  and  _333
REMARK  136  A    between atoms: _333  and  _334
REMARK  137  A    between atoms: _337  and  _339
REMARK  138  A    between atoms: _339  and  _340
REMARK  139  A    between atoms: _339  and  _342
REMARK  140  A    between atoms: _342  and  _343
REMARK  141  A    between atoms: _346  and  _348
REMARK  142  A    between atoms: _348  and  _349
REMARK  143  A    between atoms: _348  and  _351
REMARK  144  A    between atoms: _351  and  _352
REMARK  145  A    between atoms: _355  and  _357
REMARK  146  A    between atoms: _357  and  _358
REMARK  147  A    between atoms: _357  and  _360
REMARK  148  A    between atoms: _364  and  _365
REMARK  149  A    between atoms: _370  and  _372
REMARK  150  A    between atoms: _372  and  _373
REMARK  151  A    between atoms: _372  and  _375
REMARK  152  A    between atoms: _375  and  _376
REMARK  153  A    between atoms: _376  and  _377
REMARK  154  A    between atoms: _377  and  _378
REMARK  155  A    between atoms: _378  and  _379
REMARK  156  A    between atoms: _383  and  _385
REMARK  157  A    between atoms: _385  and  _386
REMARK  158  A    between atoms: _385  and  _388
REMARK  159  A    between atoms: _388  and  _389
REMARK  160  A    between atoms: _389  and  _390
REMARK  161  A    between atoms: _392  and  _394
REMARK  162  A    between atoms: _394  and  _395
REMARK  163  A    between atoms: _394  and  _397
REMARK  164  A    between atoms: _397  and  _398
REMARK  165  A    between atoms: _401  and  _403
REMARK  166  A    between atoms: _403  and  _404
REMARK  167  A    between atoms: _406  and  _408
REMARK  168  A    between atoms: _408  and  _409
REMARK  169  A    between atoms: _411  and  _413
REMARK  170  A    between atoms: _413  and  _414
REMARK  171  A    between atoms: _413  and  _416
REMARK  172  A    between atoms: _416  and  _417
REMARK  173  A    between atoms: _420  and  _422
REMARK  174  A    between atoms: _422  and  _423
REMARK  175  A    between atoms: _425  and  _427
REMARK  176  A    between atoms: _427  and  _428
REMARK  177  A    between atoms: _430  and  _432
REMARK  178  A    between atoms: _432  and  _433
REMARK  179  A    between atoms: _432  and  _435
REMARK  180  A    between atoms: _435  and  _436
REMARK  181  A    between atoms: _442  and  _444
REMARK  182  A    between atoms: _444  and  _445
REMARK  183  A    between atoms: _444  and  _447
REMARK  184  A    between atoms: _447  and  _448
REMARK  185  A    between atoms: _451  and  _453
REMARK  186  A    between atoms: _453  and  _454
REMARK  187  A    between atoms: _453  and  _456
REMARK  188  A    between atoms: _459  and  _461
REMARK  189  A    between atoms: _461  and  _462
REMARK  190  A    between atoms: _461  and  _464
REMARK  191  A    between atoms: _464  and  _465
REMARK  192  A    between atoms: _465  and  _466
REMARK  193  A    between atoms: _471  and  _473
REMARK  194  A    between atoms: _473  and  _474
REMARK  195  A    between atoms: _473  and  _476
REMARK  196  A    between atoms: _476  and  _477
REMARK  197  A    between atoms: _481  and  _482
REMARK  198  A    between atoms: _487  and  _489
REMARK  199  A    between atoms: _489  and  _490
REMARK  200  A    between atoms: _489  and  _492
REMARK  201  A    between atoms: _492  and  _493
REMARK  202  A    between atoms: _497  and  _498
REMARK  203  A    between atoms: _503  and  _505
REMARK  204  A    between atoms: _505  and  _506
REMARK  205  A    between atoms: _509  and  _511
REMARK  206  A    between atoms: _511  and  _512
REMARK  207  A    between atoms: _511  and  _514
REMARK  208  A    between atoms: _514  and  _515
REMARK  209  A    between atoms: _520  and  _522
REMARK  210  A    between atoms: _522  and  _523
REMARK  211  A    between atoms: _522  and  _525
REMARK  212  A    between atoms: _525  and  _526
REMARK  213  A    between atoms: _529  and  _531
REMARK  214  A    between atoms: _531  and  _532
REMARK  215  A    between atoms: _531  and  _534
REMARK  216  A    between atoms: _534  and  _535
REMARK  217  A    between atoms: _538  and  _540
REMARK  218  A    between atoms: _540  and  _541
REMARK  219  A    between atoms: _543  and  _545
REMARK  220  A    between atoms: _545  and  _546
REMARK  221  A    between atoms: _545  and  _548
REMARK  222  A    between atoms: _548  and  _549
REMARK  223  A    between atoms: _549  and  _550
REMARK  224  A    between atoms: _550  and  _551
REMARK  225  A    between atoms: _560  and  _562
REMARK  226  A    between atoms: _562  and  _563
REMARK  227  A    between atoms: _562  and  _565
REMARK  228  A    between atoms: _565  and  _566
REMARK                            x       y       z     vdW  Elec       q    Type
REMARK                         _______ _______ _______ _____ _____    ______ ____
ROOT
ATOM      1  O   HOH     1      15.167  15.740  11.928  0.00  0.00    +0.000 OA
ENDROOT
TORSDOF 0
REMARK  Name = ../refined-set-2016/2aoe/2aoe_pocket.pdb
REMARK  228 active torsions:
REMARK  status: ('A' for Active; 'I' for Inactive)
REMARK    1  A    between atoms: _1  and  _3
REMARK    2  A    between atoms: _3  and  _4
REMARK    3  A    between atoms: _3  and  _6
REMARK    4  A    between atoms: _6  and  _7
REMARK    5  A    between atoms: _7  and  _8
REMARK    6  A    between atoms: _8  and  _9
REMARK    7  A    between atoms: _18  and  _20
REMARK    8  A    between atoms: _20  and  _21
REMARK    9  A    between atoms: _20  and  _23
REMARK   10  A    between atoms: _23  and  _24
REMARK   11  A    between atoms: _27  and  _29
REMARK   12  A    between atoms: _29  and  _30
REMARK   13  A    between atoms: _29  and  _32
REMARK   14  A    between atoms: _32  and  _33
REMARK   15  A    between atoms: _36  and  _38
REMARK   16  A    between atoms: _38  and  _39
REMARK   17  A    between atoms: _38  and  _41
REMARK   18  A    between atoms: _41  and  _42
REMARK   19  A    between atoms: _45  and  _47
REMARK   20  A    between atoms: _47  and  _48
REMARK   21  A    between atoms: _50  and  _52
REMARK   22  A    between atoms: _52  and  _53
REMARK   23  A    between atoms: _56  and  _58
REMARK   24  A    between atoms: _58  and  _59
REMARK   25  A    between atoms: _58  and  _61
REMARK   26  A    between atoms: _61  and  _62
REMARK   27  A    between atoms: _65  and  _67
REMARK   28  A    between atoms: _67  and  _68
REMARK   29  A    between atoms: _67  and  _70
REMARK   30  A    between atoms: _70  and  _71
REMARK   31  A    between atoms: _74  and  _76
REMARK   32  A    between atoms: _76  and  _77
REMARK   33  A    between atoms: _76  and  _79
REMARK   34  A    between atoms: _79  and  _80
REMARK   35  A    between atoms: _83  and  _85
REMARK   36  A    between atoms: _85  and  _86
REMARK   37  A    between atoms: _85  and  _88
REMARK   38  A    between atoms: _91  and  _93
REMARK   39  A    between atoms: _93  and  _94
REMARK   40  A    between atoms: _93  and  _96
REMARK   41  A    between atoms: _97  and  _98
REMARK   42  A    between atoms: _98  and  _99
REMARK   43  A    between atoms: _99  and  _100
REMARK   44  A    between atoms: _104  and  _106
REMARK   45  A    between atoms: _106  and  _107
REMARK   46  A    between atoms: _106  and  _109
REMARK   47  A    between atoms: _109  and  _110
REMARK   48  A    between atoms: _110  and  _111
REMARK   49  A    between atoms: _113  and  _115
REMARK   50  A    between atoms: _115  and  _116
REMARK   51  A    between atoms: _115  and  _118
REMARK   52  A    between atoms: _118  and  _119
REMARK   53  A    between atoms: _122  and  _124
REMARK   54  A    between atoms: _124  and  _125
REMARK   55  A    between atoms: _127  and  _129
REMARK   56  A    between atoms: _129  and  _130
REMARK   57  A    between atoms: _132  and  _134
REMARK   58  A    between atoms: _134  and  _135
REMARK   59  A    between atoms: _134  and  _137
REMARK   60  A    between atoms: _137  and  _138
REMARK   61  A    between atoms: _141  and  _143
REMARK   62  A    between atoms: _143  and  _144
REMARK   63  A    between atoms: _146  and  _148
REMARK   64  A    between atoms: _148  and  _149
REMARK   65  A    between atoms: _151  and  _153
REMARK   66  A    between atoms: _153  and  _154
REMARK   67  A    between atoms: _153  and  _156
REMARK   68  A    between atoms: _156  and  _157
REMARK   69  A    between atoms: _163  and  _165
REMARK   70  A    between atoms: _165  and  _166
REMARK   71  A    between atoms: _165  and  _168
REMARK   72  A    between atoms: _168  and  _169
REMARK   73  A    between atoms: _172  and  _174
REMARK   74  A    between atoms: _174  and  _175
REMARK   75  A    between atoms: _174  and  _177
REMARK   76  A    between atoms: _180  and  _182
REMARK   77  A    between atoms: _182  and  _183
REMARK   78  A    between atoms: _182  and  _185
REMARK   79  A    between atoms: _185  and  _186
REMARK   80  A    between atoms: _189  and  _191
REMARK   81  A    between atoms: _191  and  _192
REMARK   82  A    between atoms: _191  and  _194
REMARK   83  A    between atoms: _194  and  _195
REMARK   84  A    between atoms: _199  and  _200
REMARK   85  A    between atoms: _205  and  _207
REMARK   86  A    between atoms: _207  and  _208
REMARK   87  A    between atoms: _211  and  _213
REMARK   88  A    between atoms: _213  and  _214
REMARK   89  A    between atoms: _213  and  _216
REMARK   90  A    between atoms: _216  and  _217
REMARK   91  A    between atoms: _222  and  _224
REMARK   92  A    between atoms: _224  and  _225
REMARK   93  A    between atoms: _224  and  _227
REMARK   94  A    between atoms: _227  and  _228
REMARK   95  A    between atoms: _231  and  _233
REMARK   96  A    between atoms: _233  and  _234
REMARK   97  A    between atoms: _233  and  _236
REMARK   98  A    between atoms: _236  and  _237
REMARK   99  A    between atoms: _240  and  _242
REMARK  100  A    between atoms: _242  and  _243
REMARK  101  A    between atoms: _245  and  _247
REMARK  102  A    between atoms: _247  and  _248
REMARK  103  A    between atoms: _247  and  _250
REMARK  104  A    between atoms: _250  and  _251
REMARK  105  A    between atoms: _251  and  _252
REMARK  106  A    between atoms: _252  and  _253
REMARK  107  A    between atoms: _262  and  _264
REMARK  108  A    between atoms: _264  and  _265
REMARK  109  A    between atoms: _264  and  _267
REMARK  110  A    between atoms: _267  and  _268
REMARK  111  A    between atoms: _273  and  _275
REMARK  112  A    between atoms: _275  and  _276
REMARK  113  A    between atoms: _275  and  _278
REMARK  114  A    between atoms: _278  and  _279
REMARK  115  A    between atoms: _279  and  _280
REMARK  116  A    between atoms: _280  and  _281
REMARK  117  A    between atoms: _290  and  _292
REMARK  118  A    between atoms: _292  and  _293
REMARK  119  A    between atoms: _292  and  _295
REMARK  120  A    between atoms: _295  and  _296
REMARK  121  A    between atoms: _299  and  _301
REMARK  122  A    between atoms: _301  and  _302
REMARK  123  A    between atoms: _301  and  _304
REMARK  124  A    between atoms: _304  and  _305
REMARK  125  A    between atoms: _308  and  _310
REMARK  126  A    between atoms: _310  and  _311
REMARK  127  A    between atoms: _310  and  _313
REMARK  128  A    between atoms: _313  and  _314
REMARK  129  A    between atoms: _317  and  _319
REMARK  130  A    between atoms: _319  and  _320
REMARK  131  A    between atoms: _322  and  _324
REMARK  132  A    between atoms: _324  and  _325
REMARK  133  A    between atoms: _328  and  _330
REMARK  134  A    between atoms: _330  and  _331
REMARK  135  A    between atoms: _330  and  _333
REMARK  136  A    between atoms: _333  and  _334
REMARK  137  A    between atoms: _337  and  _339
REMARK  138  A    between atoms: _339  and  _340
REMARK  139  A    between atoms: _339  and  _342
REMARK  140  A    between atoms: _342  and  _343
REMARK  141  A    between atoms: _346  and  _348
REMARK  142  A    between atoms: _348  and  _349
REMARK  143  A    between atoms: _348  and  _351
REMARK  144  A    between atoms: _351  and  _352
REMARK  145  A    between atoms: _355  and  _357
REMARK  146  A    between atoms: _357  and  _358
REMARK  147  A    between atoms: _357  and  _360
REMARK  148  A    between atoms: _364  and  _365
REMARK  149  A    between atoms: _370  and  _372
REMARK  150  A    between atoms: _372  and  _373
REMARK  151  A    between atoms: _372  and  _375
REMARK  152  A    between atoms: _375  and  _376
REMARK  153  A    between atoms: _376  and  _377
REMARK  154  A    between atoms: _377  and  _378
REMARK  155  A    between atoms: _378  and  _379
REMARK  156  A    between atoms: _383  and  _385
REMARK  157  A    between atoms: _385  and  _386
REMARK  158  A    between atoms: _385  and  _388
REMARK  159  A    between atoms: _388  and  _389
REMARK  160  A    between atoms: _389  and  _390
REMARK  161  A    between atoms: _392  and  _394
REMARK  162  A    between atoms: _394  and  _395
REMARK  163  A    between atoms: _394  and  _397
REMARK  164  A    between atoms: _397  and  _398
REMARK  165  A    between atoms: _401  and  _403
REMARK  166  A    between atoms: _403  and  _404
REMARK  167  A    between atoms: _406  and  _408
REMARK  168  A    between atoms: _408  and  _409
REMARK  169  A    between atoms: _411  and  _413
REMARK  170  A    between atoms: _413  and  _414
REMARK  171  A    between atoms: _413  and  _416
REMARK  172  A    between atoms: _416  and  _417
REMARK  173  A    between atoms: _420  and  _422
REMARK  174  A    between atoms: _422  and  _423
REMARK  175  A    between atoms: _425  and  _427
REMARK  176  A    between atoms: _427  and  _428
REMARK  177  A    between atoms: _430  and  _432
REMARK  178  A    between atoms: _432  and  _433
REMARK  179  A    between atoms: _432  and  _435
REMARK  180  A    between atoms: _435  and  _436
REMARK  181  A    between atoms: _442  and  _444
REMARK  182  A    between atoms: _444  and  _445
REMARK  183  A    between atoms: _444  and  _447
REMARK  184  A    between atoms: _447  and  _448
REMARK  185  A    between atoms: _451  and  _453
REMARK  186  A    between atoms: _453  and  _454
REMARK  187  A    between atoms: _453  and  _456
REMARK  188  A    between atoms: _459  and  _461
REMARK  189  A    between atoms: _461  and  _462
REMARK  190  A    between atoms: _461  and  _464
REMARK  191  A    between atoms: _464  and  _465
REMARK  192  A    between atoms: _465  and  _466
REMARK  193  A    between atoms: _471  and  _473
REMARK  194  A    between atoms: _473  and  _474
REMARK  195  A    between atoms: _473  and  _476
REMARK  196  A    between atoms: _476  and  _477
REMARK  197  A    between atoms: _481  and  _482
REMARK  198  A    between atoms: _487  and  _489
REMARK  199  A    between atoms: _489  and  _490
REMARK  200  A    between atoms: _489  and  _492
REMARK  201  A    between atoms: _492  and  _493
REMARK  202  A    between atoms: _497  and  _498
REMARK  203  A    between atoms: _503  and  _505
REMARK  204  A    between atoms: _505  and  _506
REMARK  205  A    between atoms: _509  and  _511
REMARK  206  A    between atoms: _511  and  _512
REMARK  207  A    between atoms: _511  and  _514
REMARK  208  A    between atoms: _514  and  _515
REMARK  209  A    between atoms: _520  and  _522
REMARK  210  A    between atoms: _522  and  _523
REMARK  211  A    between atoms: _522  and  _525
REMARK  212  A    between atoms: _525  and  _526
REMARK  213  A    between atoms: _529  and  _531
REMARK  214  A    between atoms: _531  and  _532
REMARK  215  A    between atoms: _531  and  _534
REMARK  216  A    between atoms: _534  and  _535
REMARK  217  A    between atoms: _538  and  _540
REMARK  218  A    between atoms: _540  and  _541
REMARK  219  A    between atoms: _543  and  _545
REMARK  220  A    between atoms: _545  and  _546
REMARK  221  A    between atoms: _545  and  _548
REMARK  222  A    between atoms: _548  and  _549
REMARK  223  A    between atoms: _549  and  _550
REMARK  224  A    between atoms: _550  and  _551
REMARK  225  A    between atoms: _560  and  _562
REMARK  226  A    between atoms: _562  and  _563
REMARK  227  A    between atoms: _562  and  _565
REMARK  228  A    between atoms: _565  and  _566
REMARK                            x       y       z     vdW  Elec       q    Type
REMARK                         _______ _______ _______ _____ _____    ______ ____
ROOT
ATOM      1  O   HOH     1      21.826  26.954  22.880  0.00  0.00    +0.000 OA
ENDROOT
TORSDOF 0
REMARK  Name = ../refined-set-2016/2aoe/2aoe_pocket.pdb
REMARK  228 active torsions:
REMARK  status: ('A' for Active; 'I' for Inactive)
REMARK    1  A    between atoms: _1  and  _3
REMARK    2  A    between atoms: _3  and  _4
REMARK    3  A    between atoms: _3  and  _6
REMARK    4  A    between atoms: _6  and  _7
REMARK    5  A    between atoms: _7  and  _8
REMARK    6  A    between atoms: _8  and  _9
REMARK    7  A    between atoms: _18  and  _20
REMARK    8  A    between atoms: _20  and  _21
REMARK    9  A    between atoms: _20  and  _23
REMARK   10  A    between atoms: _23  and  _24
REMARK   11  A    between atoms: _27  and  _29
REMARK   12  A    between atoms: _29  and  _30
REMARK   13  A    between atoms: _29  and  _32
REMARK   14  A    between atoms: _32  and  _33
REMARK   15  A    between atoms: _36  and  _38
REMARK   16  A    between atoms: _38  and  _39
REMARK   17  A    between atoms: _38  and  _41
REMARK   18  A    between atoms: _41  and  _42
REMARK   19  A    between atoms: _45  and  _47
REMARK   20  A    between atoms: _47  and  _48
REMARK   21  A    between atoms: _50  and  _52
REMARK   22  A    between atoms: _52  and  _53
REMARK   23  A    between atoms: _56  and  _58
REMARK   24  A    between atoms: _58  and  _59
REMARK   25  A    between atoms: _58  and  _61
REMARK   26  A    between atoms: _61  and  _62
REMARK   27  A    between atoms: _65  and  _67
REMARK   28  A    between atoms: _67  and  _68
REMARK   29  A    between atoms: _67  and  _70
REMARK   30  A    between atoms: _70  and  _71
REMARK   31  A    between atoms: _74  and  _76
REMARK   32  A    between atoms: _76  and  _77
REMARK   33  A    between atoms: _76  and  _79
REMARK   34  A    between atoms: _79  and  _80
REMARK   35  A    between atoms: _83  and  _85
REMARK   36  A    between atoms: _85  and  _86
REMARK   37  A    between atoms: _85  and  _88
REMARK   38  A    between atoms: _91  and  _93
REMARK   39  A    between atoms: _93  and  _94
REMARK   40  A    between atoms: _93  and  _96
REMARK   41  A    between atoms: _97  and  _98
REMARK   42  A    between atoms: _98  and  _99
REMARK   43  A    between atoms: _99  and  _100
REMARK   44  A    between atoms: _104  and  _106
REMARK   45  A    between atoms: _106  and  _107
REMARK   46  A    between atoms: _106  and  _109
REMARK   47  A    between atoms: _109  and  _110
REMARK   48  A    between atoms: _110  and  _111
REMARK   49  A    between atoms: _113  and  _115
REMARK   50  A    between atoms: _115  and  _116
REMARK   51  A    between atoms: _115  and  _118
REMARK   52  A    between atoms: _118  and  _119
REMARK   53  A    between atoms: _122  and  _124
REMARK   54  A    between atoms: _124  and  _125
REMARK   55  A    between atoms: _127  and  _129
REMARK   56  A    between atoms: _129  and  _130
REMARK   57  A    between atoms: _132  and  _134
REMARK   58  A    between atoms: _134  and  _135
REMARK   59  A    between atoms: _134  and  _137
REMARK   60  A    between atoms: _137  and  _138
REMARK   61  A    between atoms: _141  and  _143
REMARK   62  A    between atoms: _143  and  _144
REMARK   63  A    between atoms: _146  and  _148
REMARK   64  A    between atoms: _148  and  _149
REMARK   65  A    between atoms: _151  and  _153
REMARK   66  A    between atoms: _153  and  _154
REMARK   67  A    between atoms: _153  and  _156
REMARK   68  A    between atoms: _156  and  _157
REMARK   69  A    between atoms: _163  and  _165
REMARK   70  A    between atoms: _165  and  _166
REMARK   71  A    between atoms: _165  and  _168
REMARK   72  A    between atoms: _168  and  _169
REMARK   73  A    between atoms: _172  and  _174
REMARK   74  A    between atoms: _174  and  _175
REMARK   75  A    between atoms: _174  and  _177
REMARK   76  A    between atoms: _180  and  _182
REMARK   77  A    between atoms: _182  and  _183
REMARK   78  A    between atoms: _182  and  _185
REMARK   79  A    between atoms: _185  and  _186
REMARK   80  A    between atoms: _189  and  _191
REMARK   81  A    between atoms: _191  and  _192
REMARK   82  A    between atoms: _191  and  _194
REMARK   83  A    between atoms: _194  and  _195
REMARK   84  A    between atoms: _199  and  _200
REMARK   85  A    between atoms: _205  and  _207
REMARK   86  A    between atoms: _207  and  _208
REMARK   87  A    between atoms: _211  and  _213
REMARK   88  A    between atoms: _213  and  _214
REMARK   89  A    between atoms: _213  and  _216
REMARK   90  A    between atoms: _216  and  _217
REMARK   91  A    between atoms: _222  and  _224
REMARK   92  A    between atoms: _224  and  _225
REMARK   93  A    between atoms: _224  and  _227
REMARK   94  A    between atoms: _227  and  _228
REMARK   95  A    between atoms: _231  and  _233
REMARK   96  A    between atoms: _233  and  _234
REMARK   97  A    between atoms: _233  and  _236
REMARK   98  A    between atoms: _236  and  _237
REMARK   99  A    between atoms: _240  and  _242
REMARK  100  A    between atoms: _242  and  _243
REMARK  101  A    between atoms: _245  and  _247
REMARK  102  A    between atoms: _247  and  _248
REMARK  103  A    between atoms: _247  and  _250
REMARK  104  A    between atoms: _250  and  _251
REMARK  105  A    between atoms: _251  and  _252
REMARK  106  A    between atoms: _252  and  _253
REMARK  107  A    between atoms: _262  and  _264
REMARK  108  A    between atoms: _264  and  _265
REMARK  109  A    between atoms: _264  and  _267
REMARK  110  A    between atoms: _267  and  _268
REMARK  111  A    between atoms: _273  and  _275
REMARK  112  A    between atoms: _275  and  _276
REMARK  113  A    between atoms: _275  and  _278
REMARK  114  A    between atoms: _278  and  _279
REMARK  115  A    between atoms: _279  and  _280
REMARK  116  A    between atoms: _280  and  _281
REMARK  117  A    between atoms: _290  and  _292
REMARK  118  A    between atoms: _292  and  _293
REMARK  119  A    between atoms: _292  and  _295
REMARK  120  A    between atoms: _295  and  _296
REMARK  121  A    between atoms: _299  and  _301
REMARK  122  A    between atoms: _301  and  _302
REMARK  123  A    between atoms: _301  and  _304
REMARK  124  A    between atoms: _304  and  _305
REMARK  125  A    between atoms: _308  and  _310
REMARK  126  A    between atoms: _310  and  _311
REMARK  127  A    between atoms: _310  and  _313
REMARK  128  A    between atoms: _313  and  _314
REMARK  129  A    between atoms: _317  and  _319
REMARK  130  A    between atoms: _319  and  _320
REMARK  131  A    between atoms: _322  and  _324
REMARK  132  A    between atoms: _324  and  _325
REMARK  133  A    between atoms: _328  and  _330
REMARK  134  A    between atoms: _330  and  _331
REMARK  135  A    between atoms: _330  and  _333
REMARK  136  A    between atoms: _333  and  _334
REMARK  137  A    between atoms: _337  and  _339
REMARK  138  A    between atoms: _339  and  _340
REMARK  139  A    between atoms: _339  and  _342
REMARK  140  A    between atoms: _342  and  _343
REMARK  141  A    between atoms: _346  and  _348
REMARK  142  A    between atoms: _348  and  _349
REMARK  143  A    between atoms: _348  and  _351
REMARK  144  A    between atoms: _351  and  _352
REMARK  145  A    between atoms: _355  and  _357
REMARK  146  A    between atoms: _357  and  _358
REMARK  147  A    between atoms: _357  and  _360
REMARK  148  A    between atoms: _364  and  _365
REMARK  149  A    between atoms: _370  and  _372
REMARK  150  A    between atoms: _372  and  _373
REMARK  151  A    between atoms: _372  and  _375
REMARK  152  A    between atoms: _375  and  _376
REMARK  153  A    between atoms: _376  and  _377
REMARK  154  A    between atoms: _377  and  _378
REMARK  155  A    between atoms: _378  and  _379
REMARK  156  A    between atoms: _383  and  _385
REMARK  157  A    between atoms: _385  and  _386
REMARK  158  A    between atoms: _385  and  _388
REMARK  159  A    between atoms: _388  and  _389
REMARK  160  A    between atoms: _389  and  _390
REMARK  161  A    between atoms: _392  and  _394
REMARK  162  A    between atoms: _394  and  _395
REMARK  163  A    between atoms: _394  and  _397
REMARK  164  A    between atoms: _397  and  _398
REMARK  165  A    between atoms: _401  and  _403
REMARK  166  A    between atoms: _403  and  _404
REMARK  167  A    between atoms: _406  and  _408
REMARK  168  A    between atoms: _408  and  _409
REMARK  169  A    between atoms: _411  and  _413
REMARK  170  A    between atoms: _413  and  _414
REMARK  171  A    between atoms: _413  and  _416
REMARK  172  A    between atoms: _416  and  _417
REMARK  173  A    between atoms: _420  and  _422
REMARK  174  A    between atoms: _422  and  _423
REMARK  175  A    between atoms: _425  and  _427
REMARK  176  A    between atoms: _427  and  _428
REMARK  177  A    between atoms: _430  and  _432
REMARK  178  A    between atoms: _432  and  _433
REMARK  179  A    between atoms: _432  and  _435
REMARK  180  A    between atoms: _435  and  _436
REMARK  181  A    between atoms: _442  and  _444
REMARK  182  A    between atoms: _444  and  _445
REMARK  183  A    between atoms: _444  and  _447
REMARK  184  A    between atoms: _447  and  _448
REMARK  185  A    between atoms: _451  and  _453
REMARK  186  A    between atoms: _453  and  _454
REMARK  187  A    between atoms: _453  and  _456
REMARK  188  A    between atoms: _459  and  _461
REMARK  189  A    between atoms: _461  and  _462
REMARK  190  A    between atoms: _461  and  _464
REMARK  191  A    between atoms: _464  and  _465
REMARK  192  A    between atoms: _465  and  _466
REMARK  193  A    between atoms: _471  and  _473
REMARK  194  A    between atoms: _473  and  _474
REMARK  195  A    between atoms: _473  and  _476
REMARK  196  A    between atoms: _476  and  _477
REMARK  197  A    between atoms: _481  and  _482
REMARK  198  A    between atoms: _487  and  _489
REMARK  199  A    between atoms: _489  and  _490
REMARK  200  A    between atoms: _489  and  _492
REMARK  201  A    between atoms: _492  and  _493
REMARK  202  A    between atoms: _497  and  _498
REMARK  203  A    between atoms: _503  and  _505
REMARK  204  A    between atoms: _505  and  _506
REMARK  205  A    between atoms: _509  and  _511
REMARK  206  A    between atoms: _511  and  _512
REMARK  207  A    between atoms: _511  and  _514
REMARK  208  A    between atoms: _514  and  _515
REMARK  209  A    between atoms: _520  and  _522
REMARK  210  A    between atoms: _522  and  _523
REMARK  211  A    between atoms: _522  and  _525
REMARK  212  A    between atoms: _525  and  _526
REMARK  213  A    between atoms: _529  and  _531
REMARK  214  A    between atoms: _531  and  _532
REMARK  215  A    between atoms: _531  and  _534
REMARK  216  A    between atoms: _534  and  _535
REMARK  217  A    between atoms: _538  and  _540
REMARK  218  A    between atoms: _540  and  _541
REMARK  219  A    between atoms: _543  and  _545
REMARK  220  A    between atoms: _545  and  _546
REMARK  221  A    between atoms: _545  and  _548
REMARK  222  A    between atoms: _548  and  _549
REMARK  223  A    between atoms: _549  and  _550
REMARK  224  A    between atoms: _550  and  _551
REMARK  225  A    between atoms: _560  and  _562
REMARK  226  A    between atoms: _562  and  _563
REMARK  227  A    between atoms: _562  and  _565
REMARK  228  A    between atoms: _565  and  _566
REMARK                            x       y       z     vdW  Elec       q    Type
REMARK                         _______ _______ _______ _____ _____    ______ ____
ROOT
ATOM      1  O   HOH     1      22.074  15.492  19.674  0.00  0.00    +0.000 OA
ENDROOT
TORSDOF 0
REMARK  Name = ../refined-set-2016/2aoe/2aoe_pocket.pdb
REMARK  228 active torsions:
REMARK  status: ('A' for Active; 'I' for Inactive)
REMARK    1  A    between atoms: _1  and  _3
REMARK    2  A    between atoms: _3  and  _4
REMARK    3  A    between atoms: _3  and  _6
REMARK    4  A    between atoms: _6  and  _7
REMARK    5  A    between atoms: _7  and  _8
REMARK    6  A    between atoms: _8  and  _9
REMARK    7  A    between atoms: _18  and  _20
REMARK    8  A    between atoms: _20  and  _21
REMARK    9  A    between atoms: _20  and  _23
REMARK   10  A    between atoms: _23  and  _24
REMARK   11  A    between atoms: _27  and  _29
REMARK   12  A    between atoms: _29  and  _30
REMARK   13  A    between atoms: _29  and  _32
REMARK   14  A    between atoms: _32  and  _33
REMARK   15  A    between atoms: _36  and  _38
REMARK   16  A    between atoms: _38  and  _39
REMARK   17  A    between atoms: _38  and  _41
REMARK   18  A    between atoms: _41  and  _42
REMARK   19  A    between atoms: _45  and  _47
REMARK   20  A    between atoms: _47  and  _48
REMARK   21  A    between atoms: _50  and  _52
REMARK   22  A    between atoms: _52  and  _53
REMARK   23  A    between atoms: _56  and  _58
REMARK   24  A    between atoms: _58  and  _59
REMARK   25  A    between atoms: _58  and  _61
REMARK   26  A    between atoms: _61  and  _62
REMARK   27  A    between atoms: _65  and  _67
REMARK   28  A    between atoms: _67  and  _68
REMARK   29  A    between atoms: _67  and  _70
REMARK   30  A    between atoms: _70  and  _71
REMARK   31  A    between atoms: _74  and  _76
REMARK   32  A    between atoms: _76  and  _77
REMARK   33  A    between atoms: _76  and  _79
REMARK   34  A    between atoms: _79  and  _80
REMARK   35  A    between atoms: _83  and  _85
REMARK   36  A    between atoms: _85  and  _86
REMARK   37  A    between atoms: _85  and  _88
REMARK   38  A    between atoms: _91  and  _93
REMARK   39  A    between atoms: _93  and  _94
REMARK   40  A    between atoms: _93  and  _96
REMARK   41  A    between atoms: _97  and  _98
REMARK   42  A    between atoms: _98  and  _99
REMARK   43  A    between atoms: _99  and  _100
REMARK   44  A    between atoms: _104  and  _106
REMARK   45  A    between atoms: _106  and  _107
REMARK   46  A    between atoms: _106  and  _109
REMARK   47  A    between atoms: _109  and  _110
REMARK   48  A    between atoms: _110  and  _111
REMARK   49  A    between atoms: _113  and  _115
REMARK   50  A    between atoms: _115  and  _116
REMARK   51  A    between atoms: _115  and  _118
REMARK   52  A    between atoms: _118  and  _119
REMARK   53  A    between atoms: _122  and  _124
REMARK   54  A    between atoms: _124  and  _125
REMARK   55  A    between atoms: _127  and  _129
REMARK   56  A    between atoms: _129  and  _130
REMARK   57  A    between atoms: _132  and  _134
REMARK   58  A    between atoms: _134  and  _135
REMARK   59  A    between atoms: _134  and  _137
REMARK   60  A    between atoms: _137  and  _138
REMARK   61  A    between atoms: _141  and  _143
REMARK   62  A    between atoms: _143  and  _144
REMARK   63  A    between atoms: _146  and  _148
REMARK   64  A    between atoms: _148  and  _149
REMARK   65  A    between atoms: _151  and  _153
REMARK   66  A    between atoms: _153  and  _154
REMARK   67  A    between atoms: _153  and  _156
REMARK   68  A    between atoms: _156  and  _157
REMARK   69  A    between atoms: _163  and  _165
REMARK   70  A    between atoms: _165  and  _166
REMARK   71  A    between atoms: _165  and  _168
REMARK   72  A    between atoms: _168  and  _169
REMARK   73  A    between atoms: _172  and  _174
REMARK   74  A    between atoms: _174  and  _175
REMARK   75  A    between atoms: _174  and  _177
REMARK   76  A    between atoms: _180  and  _182
REMARK   77  A    between atoms: _182  and  _183
REMARK   78  A    between atoms: _182  and  _185
REMARK   79  A    between atoms: _185  and  _186
REMARK   80  A    between atoms: _189  and  _191
REMARK   81  A    between atoms: _191  and  _192
REMARK   82  A    between atoms: _191  and  _194
REMARK   83  A    between atoms: _194  and  _195
REMARK   84  A    between atoms: _199  and  _200
REMARK   85  A    between atoms: _205  and  _207
REMARK   86  A    between atoms: _207  and  _208
REMARK   87  A    between atoms: _211  and  _213
REMARK   88  A    between atoms: _213  and  _214
REMARK   89  A    between atoms: _213  and  _216
REMARK   90  A    between atoms: _216  and  _217
REMARK   91  A    between atoms: _222  and  _224
REMARK   92  A    between atoms: _224  and  _225
REMARK   93  A    between atoms: _224  and  _227
REMARK   94  A    between atoms: _227  and  _228
REMARK   95  A    between atoms: _231  and  _233
REMARK   96  A    between atoms: _233  and  _234
REMARK   97  A    between atoms: _233  and  _236
REMARK   98  A    between atoms: _236  and  _237
REMARK   99  A    between atoms: _240  and  _242
REMARK  100  A    between atoms: _242  and  _243
REMARK  101  A    between atoms: _245  and  _247
REMARK  102  A    between atoms: _247  and  _248
REMARK  103  A    between atoms: _247  and  _250
REMARK  104  A    between atoms: _250  and  _251
REMARK  105  A    between atoms: _251  and  _252
REMARK  106  A    between atoms: _252  and  _253
REMARK  107  A    between atoms: _262  and  _264
REMARK  108  A    between atoms: _264  and  _265
REMARK  109  A    between atoms: _264  and  _267
REMARK  110  A    between atoms: _267  and  _268
REMARK  111  A    between atoms: _273  and  _275
REMARK  112  A    between atoms: _275  and  _276
REMARK  113  A    between atoms: _275  and  _278
REMARK  114  A    between atoms: _278  and  _279
REMARK  115  A    between atoms: _279  and  _280
REMARK  116  A    between atoms: _280  and  _281
REMARK  117  A    between atoms: _290  and  _292
REMARK  118  A    between atoms: _292  and  _293
REMARK  119  A    between atoms: _292  and  _295
REMARK  120  A    between atoms: _295  and  _296
REMARK  121  A    between atoms: _299  and  _301
REMARK  122  A    between atoms: _301  and  _302
REMARK  123  A    between atoms: _301  and  _304
REMARK  124  A    between atoms: _304  and  _305
REMARK  125  A    between atoms: _308  and  _310
REMARK  126  A    between atoms: _310  and  _311
REMARK  127  A    between atoms: _310  and  _313
REMARK  128  A    between atoms: _313  and  _314
REMARK  129  A    between atoms: _317  and  _319
REMARK  130  A    between atoms: _319  and  _320
REMARK  131  A    between atoms: _322  and  _324
REMARK  132  A    between atoms: _324  and  _325
REMARK  133  A    between atoms: _328  and  _330
REMARK  134  A    between atoms: _330  and  _331
REMARK  135  A    between atoms: _330  and  _333
REMARK  136  A    between atoms: _333  and  _334
REMARK  137  A    between atoms: _337  and  _339
REMARK  138  A    between atoms: _339  and  _340
REMARK  139  A    between atoms: _339  and  _342
REMARK  140  A    between atoms: _342  and  _343
REMARK  141  A    between atoms: _346  and  _348
REMARK  142  A    between atoms: _348  and  _349
REMARK  143  A    between atoms: _348  and  _351
REMARK  144  A    between atoms: _351  and  _352
REMARK  145  A    between atoms: _355  and  _357
REMARK  146  A    between atoms: _357  and  _358
REMARK  147  A    between atoms: _357  and  _360
REMARK  148  A    between atoms: _364  and  _365
REMARK  149  A    between atoms: _370  and  _372
REMARK  150  A    between atoms: _372  and  _373
REMARK  151  A    between atoms: _372  and  _375
REMARK  152  A    between atoms: _375  and  _376
REMARK  153  A    between atoms: _376  and  _377
REMARK  154  A    between atoms: _377  and  _378
REMARK  155  A    between atoms: _378  and  _379
REMARK  156  A    between atoms: _383  and  _385
REMARK  157  A    between atoms: _385  and  _386
REMARK  158  A    between atoms: _385  and  _388
REMARK  159  A    between atoms: _388  and  _389
REMARK  160  A    between atoms: _389  and  _390
REMARK  161  A    between atoms: _392  and  _394
REMARK  162  A    between atoms: _394  and  _395
REMARK  163  A    between atoms: _394  and  _397
REMARK  164  A    between atoms: _397  and  _398
REMARK  165  A    between atoms: _401  and  _403
REMARK  166  A    between atoms: _403  and  _404
REMARK  167  A    between atoms: _406  and  _408
REMARK  168  A    between atoms: _408  and  _409
REMARK  169  A    between atoms: _411  and  _413
REMARK  170  A    between atoms: _413  and  _414
REMARK  171  A    between atoms: _413  and  _416
REMARK  172  A    between atoms: _416  and  _417
REMARK  173  A    between atoms: _420  and  _422
REMARK  174  A    between atoms: _422  and  _423
REMARK  175  A    between atoms: _425  and  _427
REMARK  176  A    between atoms: _427  and  _428
REMARK  177  A    between atoms: _430  and  _432
REMARK  178  A    between atoms: _432  and  _433
REMARK  179  A    between atoms: _432  and  _435
REMARK  180  A    between atoms: _435  and  _436
REMARK  181  A    between atoms: _442  and  _444
REMARK  182  A    between atoms: _444  and  _445
REMARK  183  A    between atoms: _444  and  _447
REMARK  184  A    between atoms: _447  and  _448
REMARK  185  A    between atoms: _451  and  _453
REMARK  186  A    between atoms: _453  and  _454
REMARK  187  A    between atoms: _453  and  _456
REMARK  188  A    between atoms: _459  and  _461
REMARK  189  A    between atoms: _461  and  _462
REMARK  190  A    between atoms: _461  and  _464
REMARK  191  A    between atoms: _464  and  _465
REMARK  192  A    between atoms: _465  and  _466
REMARK  193  A    between atoms: _471  and  _473
REMARK  194  A    between atoms: _473  and  _474
REMARK  195  A    between atoms: _473  and  _476
REMARK  196  A    between atoms: _476  and  _477
REMARK  197  A    between atoms: _481  and  _482
REMARK  198  A    between atoms: _487  and  _489
REMARK  199  A    between atoms: _489  and  _490
REMARK  200  A    between atoms: _489  and  _492
REMARK  201  A    between atoms: _492  and  _493
REMARK  202  A    between atoms: _497  and  _498
REMARK  203  A    between atoms: _503  and  _505
REMARK  204  A    between atoms: _505  and  _506
REMARK  205  A    between atoms: _509  and  _511
REMARK  206  A    between atoms: _511  and  _512
REMARK  207  A    between atoms: _511  and  _514
REMARK  208  A    between atoms: _514  and  _515
REMARK  209  A    between atoms: _520  and  _522
REMARK  210  A    between atoms: _522  and  _523
REMARK  211  A    between atoms: _522  and  _525
REMARK  212  A    between atoms: _525  and  _526
REMARK  213  A    between atoms: _529  and  _531
REMARK  214  A    between atoms: _531  and  _532
REMARK  215  A    between atoms: _531  and  _534
REMARK  216  A    between atoms: _534  and  _535
REMARK  217  A    between atoms: _538  and  _540
REMARK  218  A    between atoms: _540  and  _541
REMARK  219  A    between atoms: _543  and  _545
REMARK  220  A    between atoms: _545  and  _546
REMARK  221  A    between atoms: _545  and  _548
REMARK  222  A    between atoms: _548  and  _549
REMARK  223  A    between atoms: _549  and  _550
REMARK  224  A    between atoms: _550  and  _551
REMARK  225  A    between atoms: _560  and  _562
REMARK  226  A    between atoms: _562  and  _563
REMARK  227  A    between atoms: _562  and  _565
REMARK  228  A    between atoms: _565  and  _566
REMARK                            x       y       z     vdW  Elec       q    Type
REMARK                         _______ _______ _______ _____ _____    ______ ____
ROOT
ATOM      1  O   HOH     1      19.109  17.230   8.961  0.00  0.00    +0.000 OA
ENDROOT
TORSDOF 0
REMARK  Name = ../refined-set-2016/2aoe/2aoe_pocket.pdb
REMARK  228 active torsions:
REMARK  status: ('A' for Active; 'I' for Inactive)
REMARK    1  A    between atoms: _1  and  _3
REMARK    2  A    between atoms: _3  and  _4
REMARK    3  A    between atoms: _3  and  _6
REMARK    4  A    between atoms: _6  and  _7
REMARK    5  A    between atoms: _7  and  _8
REMARK    6  A    between atoms: _8  and  _9
REMARK    7  A    between atoms: _18  and  _20
REMARK    8  A    between atoms: _20  and  _21
REMARK    9  A    between atoms: _20  and  _23
REMARK   10  A    between atoms: _23  and  _24
REMARK   11  A    between atoms: _27  and  _29
REMARK   12  A    between atoms: _29  and  _30
REMARK   13  A    between atoms: _29  and  _32
REMARK   14  A    between atoms: _32  and  _33
REMARK   15  A    between atoms: _36  and  _38
REMARK   16  A    between atoms: _38  and  _39
REMARK   17  A    between atoms: _38  and  _41
REMARK   18  A    between atoms: _41  and  _42
REMARK   19  A    between atoms: _45  and  _47
REMARK   20  A    between atoms: _47  and  _48
REMARK   21  A    between atoms: _50  and  _52
REMARK   22  A    between atoms: _52  and  _53
REMARK   23  A    between atoms: _56  and  _58
REMARK   24  A    between atoms: _58  and  _59
REMARK   25  A    between atoms: _58  and  _61
REMARK   26  A    between atoms: _61  and  _62
REMARK   27  A    between atoms: _65  and  _67
REMARK   28  A    between atoms: _67  and  _68
REMARK   29  A    between atoms: _67  and  _70
REMARK   30  A    between atoms: _70  and  _71
REMARK   31  A    between atoms: _74  and  _76
REMARK   32  A    between atoms: _76  and  _77
REMARK   33  A    between atoms: _76  and  _79
REMARK   34  A    between atoms: _79  and  _80
REMARK   35  A    between atoms: _83  and  _85
REMARK   36  A    between atoms: _85  and  _86
REMARK   37  A    between atoms: _85  and  _88
REMARK   38  A    between atoms: _91  and  _93
REMARK   39  A    between atoms: _93  and  _94
REMARK   40  A    between atoms: _93  and  _96
REMARK   41  A    between atoms: _97  and  _98
REMARK   42  A    between atoms: _98  and  _99
REMARK   43  A    between atoms: _99  and  _100
REMARK   44  A    between atoms: _104  and  _106
REMARK   45  A    between atoms: _106  and  _107
REMARK   46  A    between atoms: _106  and  _109
REMARK   47  A    between atoms: _109  and  _110
REMARK   48  A    between atoms: _110  and  _111
REMARK   49  A    between atoms: _113  and  _115
REMARK   50  A    between atoms: _115  and  _116
REMARK   51  A    between atoms: _115  and  _118
REMARK   52  A    between atoms: _118  and  _119
REMARK   53  A    between atoms: _122  and  _124
REMARK   54  A    between atoms: _124  and  _125
REMARK   55  A    between atoms: _127  and  _129
REMARK   56  A    between atoms: _129  and  _130
REMARK   57  A    between atoms: _132  and  _134
REMARK   58  A    between atoms: _134  and  _135
REMARK   59  A    between atoms: _134  and  _137
REMARK   60  A    between atoms: _137  and  _138
REMARK   61  A    between atoms: _141  and  _143
REMARK   62  A    between atoms: _143  and  _144
REMARK   63  A    between atoms: _146  and  _148
REMARK   64  A    between atoms: _148  and  _149
REMARK   65  A    between atoms: _151  and  _153
REMARK   66  A    between atoms: _153  and  _154
REMARK   67  A    between atoms: _153  and  _156
REMARK   68  A    between atoms: _156  and  _157
REMARK   69  A    between atoms: _163  and  _165
REMARK   70  A    between atoms: _165  and  _166
REMARK   71  A    between atoms: _165  and  _168
REMARK   72  A    between atoms: _168  and  _169
REMARK   73  A    between atoms: _172  and  _174
REMARK   74  A    between atoms: _174  and  _175
REMARK   75  A    between atoms: _174  and  _177
REMARK   76  A    between atoms: _180  and  _182
REMARK   77  A    between atoms: _182  and  _183
REMARK   78  A    between atoms: _182  and  _185
REMARK   79  A    between atoms: _185  and  _186
REMARK   80  A    between atoms: _189  and  _191
REMARK   81  A    between atoms: _191  and  _192
REMARK   82  A    between atoms: _191  and  _194
REMARK   83  A    between atoms: _194  and  _195
REMARK   84  A    between atoms: _199  and  _200
REMARK   85  A    between atoms: _205  and  _207
REMARK   86  A    between atoms: _207  and  _208
REMARK   87  A    between atoms: _211  and  _213
REMARK   88  A    between atoms: _213  and  _214
REMARK   89  A    between atoms: _213  and  _216
REMARK   90  A    between atoms: _216  and  _217
REMARK   91  A    between atoms: _222  and  _224
REMARK   92  A    between atoms: _224  and  _225
REMARK   93  A    between atoms: _224  and  _227
REMARK   94  A    between atoms: _227  and  _228
REMARK   95  A    between atoms: _231  and  _233
REMARK   96  A    between atoms: _233  and  _234
REMARK   97  A    between atoms: _233  and  _236
REMARK   98  A    between atoms: _236  and  _237
REMARK   99  A    between atoms: _240  and  _242
REMARK  100  A    between atoms: _242  and  _243
REMARK  101  A    between atoms: _245  and  _247
REMARK  102  A    between atoms: _247  and  _248
REMARK  103  A    between atoms: _247  and  _250
REMARK  104  A    between atoms: _250  and  _251
REMARK  105  A    between atoms: _251  and  _252
REMARK  106  A    between atoms: _252  and  _253
REMARK  107  A    between atoms: _262  and  _264
REMARK  108  A    between atoms: _264  and  _265
REMARK  109  A    between atoms: _264  and  _267
REMARK  110  A    between atoms: _267  and  _268
REMARK  111  A    between atoms: _273  and  _275
REMARK  112  A    between atoms: _275  and  _276
REMARK  113  A    between atoms: _275  and  _278
REMARK  114  A    between atoms: _278  and  _279
REMARK  115  A    between atoms: _279  and  _280
REMARK  116  A    between atoms: _280  and  _281
REMARK  117  A    between atoms: _290  and  _292
REMARK  118  A    between atoms: _292  and  _293
REMARK  119  A    between atoms: _292  and  _295
REMARK  120  A    between atoms: _295  and  _296
REMARK  121  A    between atoms: _299  and  _301
REMARK  122  A    between atoms: _301  and  _302
REMARK  123  A    between atoms: _301  and  _304
REMARK  124  A    between atoms: _304  and  _305
REMARK  125  A    between atoms: _308  and  _310
REMARK  126  A    between atoms: _310  and  _311
REMARK  127  A    between atoms: _310  and  _313
REMARK  128  A    between atoms: _313  and  _314
REMARK  129  A    between atoms: _317  and  _319
REMARK  130  A    between atoms: _319  and  _320
REMARK  131  A    between atoms: _322  and  _324
REMARK  132  A    between atoms: _324  and  _325
REMARK  133  A    between atoms: _328  and  _330
REMARK  134  A    between atoms: _330  and  _331
REMARK  135  A    between atoms: _330  and  _333
REMARK  136  A    between atoms: _333  and  _334
REMARK  137  A    between atoms: _337  and  _339
REMARK  138  A    between atoms: _339  and  _340
REMARK  139  A    between atoms: _339  and  _342
REMARK  140  A    between atoms: _342  and  _343
REMARK  141  A    between atoms: _346  and  _348
REMARK  142  A    between atoms: _348  and  _349
REMARK  143  A    between atoms: _348  and  _351
REMARK  144  A    between atoms: _351  and  _352
REMARK  145  A    between atoms: _355  and  _357
REMARK  146  A    between atoms: _357  and  _358
REMARK  147  A    between atoms: _357  and  _360
REMARK  148  A    between atoms: _364  and  _365
REMARK  149  A    between atoms: _370  and  _372
REMARK  150  A    between atoms: _372  and  _373
REMARK  151  A    between atoms: _372  and  _375
REMARK  152  A    between atoms: _375  and  _376
REMARK  153  A    between atoms: _376  and  _377
REMARK  154  A    between atoms: _377  and  _378
REMARK  155  A    between atoms: _378  and  _379
REMARK  156  A    between atoms: _383  and  _385
REMARK  157  A    between atoms: _385  and  _386
REMARK  158  A    between atoms: _385  and  _388
REMARK  159  A    between atoms: _388  and  _389
REMARK  160  A    between atoms: _389  and  _390
REMARK  161  A    between atoms: _392  and  _394
REMARK  162  A    between atoms: _394  and  _395
REMARK  163  A    between atoms: _394  and  _397
REMARK  164  A    between atoms: _397  and  _398
REMARK  165  A    between atoms: _401  and  _403
REMARK  166  A    between atoms: _403  and  _404
REMARK  167  A    between atoms: _406  and  _408
REMARK  168  A    between atoms: _408  and  _409
REMARK  169  A    between atoms: _411  and  _413
REMARK  170  A    between atoms: _413  and  _414
REMARK  171  A    between atoms: _413  and  _416
REMARK  172  A    between atoms: _416  and  _417
REMARK  173  A    between atoms: _420  and  _422
REMARK  174  A    between atoms: _422  and  _423
REMARK  175  A    between atoms: _425  and  _427
REMARK  176  A    between atoms: _427  and  _428
REMARK  177  A    between atoms: _430  and  _432
REMARK  178  A    between atoms: _432  and  _433
REMARK  179  A    between atoms: _432  and  _435
REMARK  180  A    between atoms: _435  and  _436
REMARK  181  A    between atoms: _442  and  _444
REMARK  182  A    between atoms: _444  and  _445
REMARK  183  A    between atoms: _444  and  _447
REMARK  184  A    between atoms: _447  and  _448
REMARK  185  A    between atoms: _451  and  _453
REMARK  186  A    between atoms: _453  and  _454
REMARK  187  A    between atoms: _453  and  _456
REMARK  188  A    between atoms: _459  and  _461
REMARK  189  A    between atoms: _461  and  _462
REMARK  190  A    between atoms: _461  and  _464
REMARK  191  A    between atoms: _464  and  _465
REMARK  192  A    between atoms: _465  and  _466
REMARK  193  A    between atoms: _471  and  _473
REMARK  194  A    between atoms: _473  and  _474
REMARK  195  A    between atoms: _473  and  _476
REMARK  196  A    between atoms: _476  and  _477
REMARK  197  A    between atoms: _481  and  _482
REMARK  198  A    between atoms: _487  and  _489
REMARK  199  A    between atoms: _489  and  _490
REMARK  200  A    between atoms: _489  and  _492
REMARK  201  A    between atoms: _492  and  _493
REMARK  202  A    between atoms: _497  and  _498
REMARK  203  A    between atoms: _503  and  _505
REMARK  204  A    between atoms: _505  and  _506
REMARK  205  A    between atoms: _509  and  _511
REMARK  206  A    between atoms: _511  and  _512
REMARK  207  A    between atoms: _511  and  _514
REMARK  208  A    between atoms: _514  and  _515
REMARK  209  A    between atoms: _520  and  _522
REMARK  210  A    between atoms: _522  and  _523
REMARK  211  A    between atoms: _522  and  _525
REMARK  212  A    between atoms: _525  and  _526
REMARK  213  A    between atoms: _529  and  _531
REMARK  214  A    between atoms: _531  and  _532
REMARK  215  A    between atoms: _531  and  _534
REMARK  216  A    between atoms: _534  and  _535
REMARK  217  A    between atoms: _538  and  _540
REMARK  218  A    between atoms: _540  and  _541
REMARK  219  A    between atoms: _543  and  _545
REMARK  220  A    between atoms: _545  and  _546
REMARK  221  A    between atoms: _545  and  _548
REMARK  222  A    between atoms: _548  and  _549
REMARK  223  A    between atoms: _549  and  _550
REMARK  224  A    between atoms: _550  and  _551
REMARK  225  A    between atoms: _560  and  _562
REMARK  226  A    between atoms: _562  and  _563
REMARK  227  A    between atoms: _562  and  _565
REMARK  228  A    between atoms: _565  and  _566
REMARK                            x       y       z     vdW  Elec       q    Type
REMARK                         _______ _______ _______ _____ _____    ______ ____
ROOT
ATOM      1  O   HOH     1      21.859  23.508  28.946  0.00  0.00    +0.000 OA
ENDROOT
TORSDOF 0
REMARK  Name = ../refined-set-2016/2aoe/2aoe_pocket.pdb
REMARK  228 active torsions:
REMARK  status: ('A' for Active; 'I' for Inactive)
REMARK    1  A    between atoms: _1  and  _3
REMARK    2  A    between atoms: _3  and  _4
REMARK    3  A    between atoms: _3  and  _6
REMARK    4  A    between atoms: _6  and  _7
REMARK    5  A    between atoms: _7  and  _8
REMARK    6  A    between atoms: _8  and  _9
REMARK    7  A    between atoms: _18  and  _20
REMARK    8  A    between atoms: _20  and  _21
REMARK    9  A    between atoms: _20  and  _23
REMARK   10  A    between atoms: _23  and  _24
REMARK   11  A    between atoms: _27  and  _29
REMARK   12  A    between atoms: _29  and  _30
REMARK   13  A    between atoms: _29  and  _32
REMARK   14  A    between atoms: _32  and  _33
REMARK   15  A    between atoms: _36  and  _38
REMARK   16  A    between atoms: _38  and  _39
REMARK   17  A    between atoms: _38  and  _41
REMARK   18  A    between atoms: _41  and  _42
REMARK   19  A    between atoms: _45  and  _47
REMARK   20  A    between atoms: _47  and  _48
REMARK   21  A    between atoms: _50  and  _52
REMARK   22  A    between atoms: _52  and  _53
REMARK   23  A    between atoms: _56  and  _58
REMARK   24  A    between atoms: _58  and  _59
REMARK   25  A    between atoms: _58  and  _61
REMARK   26  A    between atoms: _61  and  _62
REMARK   27  A    between atoms: _65  and  _67
REMARK   28  A    between atoms: _67  and  _68
REMARK   29  A    between atoms: _67  and  _70
REMARK   30  A    between atoms: _70  and  _71
REMARK   31  A    between atoms: _74  and  _76
REMARK   32  A    between atoms: _76  and  _77
REMARK   33  A    between atoms: _76  and  _79
REMARK   34  A    between atoms: _79  and  _80
REMARK   35  A    between atoms: _83  and  _85
REMARK   36  A    between atoms: _85  and  _86
REMARK   37  A    between atoms: _85  and  _88
REMARK   38  A    between atoms: _91  and  _93
REMARK   39  A    between atoms: _93  and  _94
REMARK   40  A    between atoms: _93  and  _96
REMARK   41  A    between atoms: _97  and  _98
REMARK   42  A    between atoms: _98  and  _99
REMARK   43  A    between atoms: _99  and  _100
REMARK   44  A    between atoms: _104  and  _106
REMARK   45  A    between atoms: _106  and  _107
REMARK   46  A    between atoms: _106  and  _109
REMARK   47  A    between atoms: _109  and  _110
REMARK   48  A    between atoms: _110  and  _111
REMARK   49  A    between atoms: _113  and  _115
REMARK   50  A    between atoms: _115  and  _116
REMARK   51  A    between atoms: _115  and  _118
REMARK   52  A    between atoms: _118  and  _119
REMARK   53  A    between atoms: _122  and  _124
REMARK   54  A    between atoms: _124  and  _125
REMARK   55  A    between atoms: _127  and  _129
REMARK   56  A    between atoms: _129  and  _130
REMARK   57  A    between atoms: _132  and  _134
REMARK   58  A    between atoms: _134  and  _135
REMARK   59  A    between atoms: _134  and  _137
REMARK   60  A    between atoms: _137  and  _138
REMARK   61  A    between atoms: _141  and  _143
REMARK   62  A    between atoms: _143  and  _144
REMARK   63  A    between atoms: _146  and  _148
REMARK   64  A    between atoms: _148  and  _149
REMARK   65  A    between atoms: _151  and  _153
REMARK   66  A    between atoms: _153  and  _154
REMARK   67  A    between atoms: _153  and  _156
REMARK   68  A    between atoms: _156  and  _157
REMARK   69  A    between atoms: _163  and  _165
REMARK   70  A    between atoms: _165  and  _166
REMARK   71  A    between atoms: _165  and  _168
REMARK   72  A    between atoms: _168  and  _169
REMARK   73  A    between atoms: _172  and  _174
REMARK   74  A    between atoms: _174  and  _175
REMARK   75  A    between atoms: _174  and  _177
REMARK   76  A    between atoms: _180  and  _182
REMARK   77  A    between atoms: _182  and  _183
REMARK   78  A    between atoms: _182  and  _185
REMARK   79  A    between atoms: _185  and  _186
REMARK   80  A    between atoms: _189  and  _191
REMARK   81  A    between atoms: _191  and  _192
REMARK   82  A    between atoms: _191  and  _194
REMARK   83  A    between atoms: _194  and  _195
REMARK   84  A    between atoms: _199  and  _200
REMARK   85  A    between atoms: _205  and  _207
REMARK   86  A    between atoms: _207  and  _208
REMARK   87  A    between atoms: _211  and  _213
REMARK   88  A    between atoms: _213  and  _214
REMARK   89  A    between atoms: _213  and  _216
REMARK   90  A    between atoms: _216  and  _217
REMARK   91  A    between atoms: _222  and  _224
REMARK   92  A    between atoms: _224  and  _225
REMARK   93  A    between atoms: _224  and  _227
REMARK   94  A    between atoms: _227  and  _228
REMARK   95  A    between atoms: _231  and  _233
REMARK   96  A    between atoms: _233  and  _234
REMARK   97  A    between atoms: _233  and  _236
REMARK   98  A    between atoms: _236  and  _237
REMARK   99  A    between atoms: _240  and  _242
REMARK  100  A    between atoms: _242  and  _243
REMARK  101  A    between atoms: _245  and  _247
REMARK  102  A    between atoms: _247  and  _248
REMARK  103  A    between atoms: _247  and  _250
REMARK  104  A    between atoms: _250  and  _251
REMARK  105  A    between atoms: _251  and  _252
REMARK  106  A    between atoms: _252  and  _253
REMARK  107  A    between atoms: _262  and  _264
REMARK  108  A    between atoms: _264  and  _265
REMARK  109  A    between atoms: _264  and  _267
REMARK  110  A    between atoms: _267  and  _268
REMARK  111  A    between atoms: _273  and  _275
REMARK  112  A    between atoms: _275  and  _276
REMARK  113  A    between atoms: _275  and  _278
REMARK  114  A    between atoms: _278  and  _279
REMARK  115  A    between atoms: _279  and  _280
REMARK  116  A    between atoms: _280  and  _281
REMARK  117  A    between atoms: _290  and  _292
REMARK  118  A    between atoms: _292  and  _293
REMARK  119  A    between atoms: _292  and  _295
REMARK  120  A    between atoms: _295  and  _296
REMARK  121  A    between atoms: _299  and  _301
REMARK  122  A    between atoms: _301  and  _302
REMARK  123  A    between atoms: _301  and  _304
REMARK  124  A    between atoms: _304  and  _305
REMARK  125  A    between atoms: _308  and  _310
REMARK  126  A    between atoms: _310  and  _311
REMARK  127  A    between atoms: _310  and  _313
REMARK  128  A    between atoms: _313  and  _314
REMARK  129  A    between atoms: _317  and  _319
REMARK  130  A    between atoms: _319  and  _320
REMARK  131  A    between atoms: _322  and  _324
REMARK  132  A    between atoms: _324  and  _325
REMARK  133  A    between atoms: _328  and  _330
REMARK  134  A    between atoms: _330  and  _331
REMARK  135  A    between atoms: _330  and  _333
REMARK  136  A    between atoms: _333  and  _334
REMARK  137  A    between atoms: _337  and  _339
REMARK  138  A    between atoms: _339  and  _340
REMARK  139  A    between atoms: _339  and  _342
REMARK  140  A    between atoms: _342  and  _343
REMARK  141  A    between atoms: _346  and  _348
REMARK  142  A    between atoms: _348  and  _349
REMARK  143  A    between atoms: _348  and  _351
REMARK  144  A    between atoms: _351  and  _352
REMARK  145  A    between atoms: _355  and  _357
REMARK  146  A    between atoms: _357  and  _358
REMARK  147  A    between atoms: _357  and  _360
REMARK  148  A    between atoms: _364  and  _365
REMARK  149  A    between atoms: _370  and  _372
REMARK  150  A    between atoms: _372  and  _373
REMARK  151  A    between atoms: _372  and  _375
REMARK  152  A    between atoms: _375  and  _376
REMARK  153  A    between atoms: _376  and  _377
REMARK  154  A    between atoms: _377  and  _378
REMARK  155  A    between atoms: _378  and  _379
REMARK  156  A    between atoms: _383  and  _385
REMARK  157  A    between atoms: _385  and  _386
REMARK  158  A    between atoms: _385  and  _388
REMARK  159  A    between atoms: _388  and  _389
REMARK  160  A    between atoms: _389  and  _390
REMARK  161  A    between atoms: _392  and  _394
REMARK  162  A    between atoms: _394  and  _395
REMARK  163  A    between atoms: _394  and  _397
REMARK  164  A    between atoms: _397  and  _398
REMARK  165  A    between atoms: _401  and  _403
REMARK  166  A    between atoms: _403  and  _404
REMARK  167  A    between atoms: _406  and  _408
REMARK  168  A    between atoms: _408  and  _409
REMARK  169  A    between atoms: _411  and  _413
REMARK  170  A    between atoms: _413  and  _414
REMARK  171  A    between atoms: _413  and  _416
REMARK  172  A    between atoms: _416  and  _417
REMARK  173  A    between atoms: _420  and  _422
REMARK  174  A    between atoms: _422  and  _423
REMARK  175  A    between atoms: _425  and  _427
REMARK  176  A    between atoms: _427  and  _428
REMARK  177  A    between atoms: _430  and  _432
REMARK  178  A    between atoms: _432  and  _433
REMARK  179  A    between atoms: _432  and  _435
REMARK  180  A    between atoms: _435  and  _436
REMARK  181  A    between atoms: _442  and  _444
REMARK  182  A    between atoms: _444  and  _445
REMARK  183  A    between atoms: _444  and  _447
REMARK  184  A    between atoms: _447  and  _448
REMARK  185  A    between atoms: _451  and  _453
REMARK  186  A    between atoms: _453  and  _454
REMARK  187  A    between atoms: _453  and  _456
REMARK  188  A    between atoms: _459  and  _461
REMARK  189  A    between atoms: _461  and  _462
REMARK  190  A    between atoms: _461  and  _464
REMARK  191  A    between atoms: _464  and  _465
REMARK  192  A    between atoms: _465  and  _466
REMARK  193  A    between atoms: _471  and  _473
REMARK  194  A    between atoms: _473  and  _474
REMARK  195  A    between atoms: _473  and  _476
REMARK  196  A    between atoms: _476  and  _477
REMARK  197  A    between atoms: _481  and  _482
REMARK  198  A    between atoms: _487  and  _489
REMARK  199  A    between atoms: _489  and  _490
REMARK  200  A    between atoms: _489  and  _492
REMARK  201  A    between atoms: _492  and  _493
REMARK  202  A    between atoms: _497  and  _498
REMARK  203  A    between atoms: _503  and  _505
REMARK  204  A    between atoms: _505  and  _506
REMARK  205  A    between atoms: _509  and  _511
REMARK  206  A    between atoms: _511  and  _512
REMARK  207  A    between atoms: _511  and  _514
REMARK  208  A    between atoms: _514  and  _515
REMARK  209  A    between atoms: _520  and  _522
REMARK  210  A    between atoms: _522  and  _523
REMARK  211  A    between atoms: _522  and  _525
REMARK  212  A    between atoms: _525  and  _526
REMARK  213  A    between atoms: _529  and  _531
REMARK  214  A    between atoms: _531  and  _532
REMARK  215  A    between atoms: _531  and  _534
REMARK  216  A    between atoms: _534  and  _535
REMARK  217  A    between atoms: _538  and  _540
REMARK  218  A    between atoms: _540  and  _541
REMARK  219  A    between atoms: _543  and  _545
REMARK  220  A    between atoms: _545  and  _546
REMARK  221  A    between atoms: _545  and  _548
REMARK  222  A    between atoms: _548  and  _549
REMARK  223  A    between atoms: _549  and  _550
REMARK  224  A    between atoms: _550  and  _551
REMARK  225  A    between atoms: _560  and  _562
REMARK  226  A    between atoms: _562  and  _563
REMARK  227  A    between atoms: _562  and  _565
REMARK  228  A    between atoms: _565  and  _566
REMARK                            x       y       z     vdW  Elec       q    Type
REMARK                         _______ _______ _______ _____ _____    ______ ____
ROOT
ATOM      1  O   HOH     1       6.559  16.023  25.368  0.00  0.00    +0.000 OA
ENDROOT
TORSDOF 0
REMARK  Name = ../refined-set-2016/2aoe/2aoe_pocket.pdb
REMARK  228 active torsions:
REMARK  status: ('A' for Active; 'I' for Inactive)
REMARK    1  A    between atoms: _1  and  _3
REMARK    2  A    between atoms: _3  and  _4
REMARK    3  A    between atoms: _3  and  _6
REMARK    4  A    between atoms: _6  and  _7
REMARK    5  A    between atoms: _7  and  _8
REMARK    6  A    between atoms: _8  and  _9
REMARK    7  A    between atoms: _18  and  _20
REMARK    8  A    between atoms: _20  and  _21
REMARK    9  A    between atoms: _20  and  _23
REMARK   10  A    between atoms: _23  and  _24
REMARK   11  A    between atoms: _27  and  _29
REMARK   12  A    between atoms: _29  and  _30
REMARK   13  A    between atoms: _29  and  _32
REMARK   14  A    between atoms: _32  and  _33
REMARK   15  A    between atoms: _36  and  _38
REMARK   16  A    between atoms: _38  and  _39
REMARK   17  A    between atoms: _38  and  _41
REMARK   18  A    between atoms: _41  and  _42
REMARK   19  A    between atoms: _45  and  _47
REMARK   20  A    between atoms: _47  and  _48
REMARK   21  A    between atoms: _50  and  _52
REMARK   22  A    between atoms: _52  and  _53
REMARK   23  A    between atoms: _56  and  _58
REMARK   24  A    between atoms: _58  and  _59
REMARK   25  A    between atoms: _58  and  _61
REMARK   26  A    between atoms: _61  and  _62
REMARK   27  A    between atoms: _65  and  _67
REMARK   28  A    between atoms: _67  and  _68
REMARK   29  A    between atoms: _67  and  _70
REMARK   30  A    between atoms: _70  and  _71
REMARK   31  A    between atoms: _74  and  _76
REMARK   32  A    between atoms: _76  and  _77
REMARK   33  A    between atoms: _76  and  _79
REMARK   34  A    between atoms: _79  and  _80
REMARK   35  A    between atoms: _83  and  _85
REMARK   36  A    between atoms: _85  and  _86
REMARK   37  A    between atoms: _85  and  _88
REMARK   38  A    between atoms: _91  and  _93
REMARK   39  A    between atoms: _93  and  _94
REMARK   40  A    between atoms: _93  and  _96
REMARK   41  A    between atoms: _97  and  _98
REMARK   42  A    between atoms: _98  and  _99
REMARK   43  A    between atoms: _99  and  _100
REMARK   44  A    between atoms: _104  and  _106
REMARK   45  A    between atoms: _106  and  _107
REMARK   46  A    between atoms: _106  and  _109
REMARK   47  A    between atoms: _109  and  _110
REMARK   48  A    between atoms: _110  and  _111
REMARK   49  A    between atoms: _113  and  _115
REMARK   50  A    between atoms: _115  and  _116
REMARK   51  A    between atoms: _115  and  _118
REMARK   52  A    between atoms: _118  and  _119
REMARK   53  A    between atoms: _122  and  _124
REMARK   54  A    between atoms: _124  and  _125
REMARK   55  A    between atoms: _127  and  _129
REMARK   56  A    between atoms: _129  and  _130
REMARK   57  A    between atoms: _132  and  _134
REMARK   58  A    between atoms: _134  and  _135
REMARK   59  A    between atoms: _134  and  _137
REMARK   60  A    between atoms: _137  and  _138
REMARK   61  A    between atoms: _141  and  _143
REMARK   62  A    between atoms: _143  and  _144
REMARK   63  A    between atoms: _146  and  _148
REMARK   64  A    between atoms: _148  and  _149
REMARK   65  A    between atoms: _151  and  _153
REMARK   66  A    between atoms: _153  and  _154
REMARK   67  A    between atoms: _153  and  _156
REMARK   68  A    between atoms: _156  and  _157
REMARK   69  A    between atoms: _163  and  _165
REMARK   70  A    between atoms: _165  and  _166
REMARK   71  A    between atoms: _165  and  _168
REMARK   72  A    between atoms: _168  and  _169
REMARK   73  A    between atoms: _172  and  _174
REMARK   74  A    between atoms: _174  and  _175
REMARK   75  A    between atoms: _174  and  _177
REMARK   76  A    between atoms: _180  and  _182
REMARK   77  A    between atoms: _182  and  _183
REMARK   78  A    between atoms: _182  and  _185
REMARK   79  A    between atoms: _185  and  _186
REMARK   80  A    between atoms: _189  and  _191
REMARK   81  A    between atoms: _191  and  _192
REMARK   82  A    between atoms: _191  and  _194
REMARK   83  A    between atoms: _194  and  _195
REMARK   84  A    between atoms: _199  and  _200
REMARK   85  A    between atoms: _205  and  _207
REMARK   86  A    between atoms: _207  and  _208
REMARK   87  A    between atoms: _211  and  _213
REMARK   88  A    between atoms: _213  and  _214
REMARK   89  A    between atoms: _213  and  _216
REMARK   90  A    between atoms: _216  and  _217
REMARK   91  A    between atoms: _222  and  _224
REMARK   92  A    between atoms: _224  and  _225
REMARK   93  A    between atoms: _224  and  _227
REMARK   94  A    between atoms: _227  and  _228
REMARK   95  A    between atoms: _231  and  _233
REMARK   96  A    between atoms: _233  and  _234
REMARK   97  A    between atoms: _233  and  _236
REMARK   98  A    between atoms: _236  and  _237
REMARK   99  A    between atoms: _240  and  _242
REMARK  100  A    between atoms: _242  and  _243
REMARK  101  A    between atoms: _245  and  _247
REMARK  102  A    between atoms: _247  and  _248
REMARK  103  A    between atoms: _247  and  _250
REMARK  104  A    between atoms: _250  and  _251
REMARK  105  A    between atoms: _251  and  _252
REMARK  106  A    between atoms: _252  and  _253
REMARK  107  A    between atoms: _262  and  _264
REMARK  108  A    between atoms: _264  and  _265
REMARK  109  A    between atoms: _264  and  _267
REMARK  110  A    between atoms: _267  and  _268
REMARK  111  A    between atoms: _273  and  _275
REMARK  112  A    between atoms: _275  and  _276
REMARK  113  A    between atoms: _275  and  _278
REMARK  114  A    between atoms: _278  and  _279
REMARK  115  A    between atoms: _279  and  _280
REMARK  116  A    between atoms: _280  and  _281
REMARK  117  A    between atoms: _290  and  _292
REMARK  118  A    between atoms: _292  and  _293
REMARK  119  A    between atoms: _292  and  _295
REMARK  120  A    between atoms: _295  and  _296
REMARK  121  A    between atoms: _299  and  _301
REMARK  122  A    between atoms: _301  and  _302
REMARK  123  A    between atoms: _301  and  _304
REMARK  124  A    between atoms: _304  and  _305
REMARK  125  A    between atoms: _308  and  _310
REMARK  126  A    between atoms: _310  and  _311
REMARK  127  A    between atoms: _310  and  _313
REMARK  128  A    between atoms: _313  and  _314
REMARK  129  A    between atoms: _317  and  _319
REMARK  130  A    between atoms: _319  and  _320
REMARK  131  A    between atoms: _322  and  _324
REMARK  132  A    between atoms: _324  and  _325
REMARK  133  A    between atoms: _328  and  _330
REMARK  134  A    between atoms: _330  and  _331
REMARK  135  A    between atoms: _330  and  _333
REMARK  136  A    between atoms: _333  and  _334
REMARK  137  A    between atoms: _337  and  _339
REMARK  138  A    between atoms: _339  and  _340
REMARK  139  A    between atoms: _339  and  _342
REMARK  140  A    between atoms: _342  and  _343
REMARK  141  A    between atoms: _346  and  _348
REMARK  142  A    between atoms: _348  and  _349
REMARK  143  A    between atoms: _348  and  _351
REMARK  144  A    between atoms: _351  and  _352
REMARK  145  A    between atoms: _355  and  _357
REMARK  146  A    between atoms: _357  and  _358
REMARK  147  A    between atoms: _357  and  _360
REMARK  148  A    between atoms: _364  and  _365
REMARK  149  A    between atoms: _370  and  _372
REMARK  150  A    between atoms: _372  and  _373
REMARK  151  A    between atoms: _372  and  _375
REMARK  152  A    between atoms: _375  and  _376
REMARK  153  A    between atoms: _376  and  _377
REMARK  154  A    between atoms: _377  and  _378
REMARK  155  A    between atoms: _378  and  _379
REMARK  156  A    between atoms: _383  and  _385
REMARK  157  A    between atoms: _385  and  _386
REMARK  158  A    between atoms: _385  and  _388
REMARK  159  A    between atoms: _388  and  _389
REMARK  160  A    between atoms: _389  and  _390
REMARK  161  A    between atoms: _392  and  _394
REMARK  162  A    between atoms: _394  and  _395
REMARK  163  A    between atoms: _394  and  _397
REMARK  164  A    between atoms: _397  and  _398
REMARK  165  A    between atoms: _401  and  _403
REMARK  166  A    between atoms: _403  and  _404
REMARK  167  A    between atoms: _406  and  _408
REMARK  168  A    between atoms: _408  and  _409
REMARK  169  A    between atoms: _411  and  _413
REMARK  170  A    between atoms: _413  and  _414
REMARK  171  A    between atoms: _413  and  _416
REMARK  172  A    between atoms: _416  and  _417
REMARK  173  A    between atoms: _420  and  _422
REMARK  174  A    between atoms: _422  and  _423
REMARK  175  A    between atoms: _425  and  _427
REMARK  176  A    between atoms: _427  and  _428
REMARK  177  A    between atoms: _430  and  _432
REMARK  178  A    between atoms: _432  and  _433
REMARK  179  A    between atoms: _432  and  _435
REMARK  180  A    between atoms: _435  and  _436
REMARK  181  A    between atoms: _442  and  _444
REMARK  182  A    between atoms: _444  and  _445
REMARK  183  A    between atoms: _444  and  _447
REMARK  184  A    between atoms: _447  and  _448
REMARK  185  A    between atoms: _451  and  _453
REMARK  186  A    between atoms: _453  and  _454
REMARK  187  A    between atoms: _453  and  _456
REMARK  188  A    between atoms: _459  and  _461
REMARK  189  A    between atoms: _461  and  _462
REMARK  190  A    between atoms: _461  and  _464
REMARK  191  A    between atoms: _464  and  _465
REMARK  192  A    between atoms: _465  and  _466
REMARK  193  A    between atoms: _471  and  _473
REMARK  194  A    between atoms: _473  and  _474
REMARK  195  A    between atoms: _473  and  _476
REMARK  196  A    between atoms: _476  and  _477
REMARK  197  A    between atoms: _481  and  _482
REMARK  198  A    between atoms: _487  and  _489
REMARK  199  A    between atoms: _489  and  _490
REMARK  200  A    between atoms: _489  and  _492
REMARK  201  A    between atoms: _492  and  _493
REMARK  202  A    between atoms: _497  and  _498
REMARK  203  A    between atoms: _503  and  _505
REMARK  204  A    between atoms: _505  and  _506
REMARK  205  A    between atoms: _509  and  _511
REMARK  206  A    between atoms: _511  and  _512
REMARK  207  A    between atoms: _511  and  _514
REMARK  208  A    between atoms: _514  and  _515
REMARK  209  A    between atoms: _520  and  _522
REMARK  210  A    between atoms: _522  and  _523
REMARK  211  A    between atoms: _522  and  _525
REMARK  212  A    between atoms: _525  and  _526
REMARK  213  A    between atoms: _529  and  _531
REMARK  214  A    between atoms: _531  and  _532
REMARK  215  A    between atoms: _531  and  _534
REMARK  216  A    between atoms: _534  and  _535
REMARK  217  A    between atoms: _538  and  _540
REMARK  218  A    between atoms: _540  and  _541
REMARK  219  A    between atoms: _543  and  _545
REMARK  220  A    between atoms: _545  and  _546
REMARK  221  A    between atoms: _545  and  _548
REMARK  222  A    between atoms: _548  and  _549
REMARK  223  A    between atoms: _549  and  _550
REMARK  224  A    between atoms: _550  and  _551
REMARK  225  A    between atoms: _560  and  _562
REMARK  226  A    between atoms: _562  and  _563
REMARK  227  A    between atoms: _562  and  _565
REMARK  228  A    between atoms: _565  and  _566
REMARK                            x       y       z     vdW  Elec       q    Type
REMARK                         _______ _______ _______ _____ _____    ______ ____
ROOT
ATOM      1  O   HOH     1       4.066  18.803  22.621  0.00  0.00    +0.000 OA
ENDROOT
TORSDOF 0
REMARK  Name = ../refined-set-2016/2aoe/2aoe_pocket.pdb
REMARK  228 active torsions:
REMARK  status: ('A' for Active; 'I' for Inactive)
REMARK    1  A    between atoms: _1  and  _3
REMARK    2  A    between atoms: _3  and  _4
REMARK    3  A    between atoms: _3  and  _6
REMARK    4  A    between atoms: _6  and  _7
REMARK    5  A    between atoms: _7  and  _8
REMARK    6  A    between atoms: _8  and  _9
REMARK    7  A    between atoms: _18  and  _20
REMARK    8  A    between atoms: _20  and  _21
REMARK    9  A    between atoms: _20  and  _23
REMARK   10  A    between atoms: _23  and  _24
REMARK   11  A    between atoms: _27  and  _29
REMARK   12  A    between atoms: _29  and  _30
REMARK   13  A    between atoms: _29  and  _32
REMARK   14  A    between atoms: _32  and  _33
REMARK   15  A    between atoms: _36  and  _38
REMARK   16  A    between atoms: _38  and  _39
REMARK   17  A    between atoms: _38  and  _41
REMARK   18  A    between atoms: _41  and  _42
REMARK   19  A    between atoms: _45  and  _47
REMARK   20  A    between atoms: _47  and  _48
REMARK   21  A    between atoms: _50  and  _52
REMARK   22  A    between atoms: _52  and  _53
REMARK   23  A    between atoms: _56  and  _58
REMARK   24  A    between atoms: _58  and  _59
REMARK   25  A    between atoms: _58  and  _61
REMARK   26  A    between atoms: _61  and  _62
REMARK   27  A    between atoms: _65  and  _67
REMARK   28  A    between atoms: _67  and  _68
REMARK   29  A    between atoms: _67  and  _70
REMARK   30  A    between atoms: _70  and  _71
REMARK   31  A    between atoms: _74  and  _76
REMARK   32  A    between atoms: _76  and  _77
REMARK   33  A    between atoms: _76  and  _79
REMARK   34  A    between atoms: _79  and  _80
REMARK   35  A    between atoms: _83  and  _85
REMARK   36  A    between atoms: _85  and  _86
REMARK   37  A    between atoms: _85  and  _88
REMARK   38  A    between atoms: _91  and  _93
REMARK   39  A    between atoms: _93  and  _94
REMARK   40  A    between atoms: _93  and  _96
REMARK   41  A    between atoms: _97  and  _98
REMARK   42  A    between atoms: _98  and  _99
REMARK   43  A    between atoms: _99  and  _100
REMARK   44  A    between atoms: _104  and  _106
REMARK   45  A    between atoms: _106  and  _107
REMARK   46  A    between atoms: _106  and  _109
REMARK   47  A    between atoms: _109  and  _110
REMARK   48  A    between atoms: _110  and  _111
REMARK   49  A    between atoms: _113  and  _115
REMARK   50  A    between atoms: _115  and  _116
REMARK   51  A    between atoms: _115  and  _118
REMARK   52  A    between atoms: _118  and  _119
REMARK   53  A    between atoms: _122  and  _124
REMARK   54  A    between atoms: _124  and  _125
REMARK   55  A    between atoms: _127  and  _129
REMARK   56  A    between atoms: _129  and  _130
REMARK   57  A    between atoms: _132  and  _134
REMARK   58  A    between atoms: _134  and  _135
REMARK   59  A    between atoms: _134  and  _137
REMARK   60  A    between atoms: _137  and  _138
REMARK   61  A    between atoms: _141  and  _143
REMARK   62  A    between atoms: _143  and  _144
REMARK   63  A    between atoms: _146  and  _148
REMARK   64  A    between atoms: _148  and  _149
REMARK   65  A    between atoms: _151  and  _153
REMARK   66  A    between atoms: _153  and  _154
REMARK   67  A    between atoms: _153  and  _156
REMARK   68  A    between atoms: _156  and  _157
REMARK   69  A    between atoms: _163  and  _165
REMARK   70  A    between atoms: _165  and  _166
REMARK   71  A    between atoms: _165  and  _168
REMARK   72  A    between atoms: _168  and  _169
REMARK   73  A    between atoms: _172  and  _174
REMARK   74  A    between atoms: _174  and  _175
REMARK   75  A    between atoms: _174  and  _177
REMARK   76  A    between atoms: _180  and  _182
REMARK   77  A    between atoms: _182  and  _183
REMARK   78  A    between atoms: _182  and  _185
REMARK   79  A    between atoms: _185  and  _186
REMARK   80  A    between atoms: _189  and  _191
REMARK   81  A    between atoms: _191  and  _192
REMARK   82  A    between atoms: _191  and  _194
REMARK   83  A    between atoms: _194  and  _195
REMARK   84  A    between atoms: _199  and  _200
REMARK   85  A    between atoms: _205  and  _207
REMARK   86  A    between atoms: _207  and  _208
REMARK   87  A    between atoms: _211  and  _213
REMARK   88  A    between atoms: _213  and  _214
REMARK   89  A    between atoms: _213  and  _216
REMARK   90  A    between atoms: _216  and  _217
REMARK   91  A    between atoms: _222  and  _224
REMARK   92  A    between atoms: _224  and  _225
REMARK   93  A    between atoms: _224  and  _227
REMARK   94  A    between atoms: _227  and  _228
REMARK   95  A    between atoms: _231  and  _233
REMARK   96  A    between atoms: _233  and  _234
REMARK   97  A    between atoms: _233  and  _236
REMARK   98  A    between atoms: _236  and  _237
REMARK   99  A    between atoms: _240  and  _242
REMARK  100  A    between atoms: _242  and  _243
REMARK  101  A    between atoms: _245  and  _247
REMARK  102  A    between atoms: _247  and  _248
REMARK  103  A    between atoms: _247  and  _250
REMARK  104  A    between atoms: _250  and  _251
REMARK  105  A    between atoms: _251  and  _252
REMARK  106  A    between atoms: _252  and  _253
REMARK  107  A    between atoms: _262  and  _264
REMARK  108  A    between atoms: _264  and  _265
REMARK  109  A    between atoms: _264  and  _267
REMARK  110  A    between atoms: _267  and  _268
REMARK  111  A    between atoms: _273  and  _275
REMARK  112  A    between atoms: _275  and  _276
REMARK  113  A    between atoms: _275  and  _278
REMARK  114  A    between atoms: _278  and  _279
REMARK  115  A    between atoms: _279  and  _280
REMARK  116  A    between atoms: _280  and  _281
REMARK  117  A    between atoms: _290  and  _292
REMARK  118  A    between atoms: _292  and  _293
REMARK  119  A    between atoms: _292  and  _295
REMARK  120  A    between atoms: _295  and  _296
REMARK  121  A    between atoms: _299  and  _301
REMARK  122  A    between atoms: _301  and  _302
REMARK  123  A    between atoms: _301  and  _304
REMARK  124  A    between atoms: _304  and  _305
REMARK  125  A    between atoms: _308  and  _310
REMARK  126  A    between atoms: _310  and  _311
REMARK  127  A    between atoms: _310  and  _313
REMARK  128  A    between atoms: _313  and  _314
REMARK  129  A    between atoms: _317  and  _319
REMARK  130  A    between atoms: _319  and  _320
REMARK  131  A    between atoms: _322  and  _324
REMARK  132  A    between atoms: _324  and  _325
REMARK  133  A    between atoms: _328  and  _330
REMARK  134  A    between atoms: _330  and  _331
REMARK  135  A    between atoms: _330  and  _333
REMARK  136  A    between atoms: _333  and  _334
REMARK  137  A    between atoms: _337  and  _339
REMARK  138  A    between atoms: _339  and  _340
REMARK  139  A    between atoms: _339  and  _342
REMARK  140  A    between atoms: _342  and  _343
REMARK  141  A    between atoms: _346  and  _348
REMARK  142  A    between atoms: _348  and  _349
REMARK  143  A    between atoms: _348  and  _351
REMARK  144  A    between atoms: _351  and  _352
REMARK  145  A    between atoms: _355  and  _357
REMARK  146  A    between atoms: _357  and  _358
REMARK  147  A    between atoms: _357  and  _360
REMARK  148  A    between atoms: _364  and  _365
REMARK  149  A    between atoms: _370  and  _372
REMARK  150  A    between atoms: _372  and  _373
REMARK  151  A    between atoms: _372  and  _375
REMARK  152  A    between atoms: _375  and  _376
REMARK  153  A    between atoms: _376  and  _377
REMARK  154  A    between atoms: _377  and  _378
REMARK  155  A    between atoms: _378  and  _379
REMARK  156  A    between atoms: _383  and  _385
REMARK  157  A    between atoms: _385  and  _386
REMARK  158  A    between atoms: _385  and  _388
REMARK  159  A    between atoms: _388  and  _389
REMARK  160  A    between atoms: _389  and  _390
REMARK  161  A    between atoms: _392  and  _394
REMARK  162  A    between atoms: _394  and  _395
REMARK  163  A    between atoms: _394  and  _397
REMARK  164  A    between atoms: _397  and  _398
REMARK  165  A    between atoms: _401  and  _403
REMARK  166  A    between atoms: _403  and  _404
REMARK  167  A    between atoms: _406  and  _408
REMARK  168  A    between atoms: _408  and  _409
REMARK  169  A    between atoms: _411  and  _413
REMARK  170  A    between atoms: _413  and  _414
REMARK  171  A    between atoms: _413  and  _416
REMARK  172  A    between atoms: _416  and  _417
REMARK  173  A    between atoms: _420  and  _422
REMARK  174  A    between atoms: _422  and  _423
REMARK  175  A    between atoms: _425  and  _427
REMARK  176  A    between atoms: _427  and  _428
REMARK  177  A    between atoms: _430  and  _432
REMARK  178  A    between atoms: _432  and  _433
REMARK  179  A    between atoms: _432  and  _435
REMARK  180  A    between atoms: _435  and  _436
REMARK  181  A    between atoms: _442  and  _444
REMARK  182  A    between atoms: _444  and  _445
REMARK  183  A    between atoms: _444  and  _447
REMARK  184  A    between atoms: _447  and  _448
REMARK  185  A    between atoms: _451  and  _453
REMARK  186  A    between atoms: _453  and  _454
REMARK  187  A    between atoms: _453  and  _456
REMARK  188  A    between atoms: _459  and  _461
REMARK  189  A    between atoms: _461  and  _462
REMARK  190  A    between atoms: _461  and  _464
REMARK  191  A    between atoms: _464  and  _465
REMARK  192  A    between atoms: _465  and  _466
REMARK  193  A    between atoms: _471  and  _473
REMARK  194  A    between atoms: _473  and  _474
REMARK  195  A    between atoms: _473  and  _476
REMARK  196  A    between atoms: _476  and  _477
REMARK  197  A    between atoms: _481  and  _482
REMARK  198  A    between atoms: _487  and  _489
REMARK  199  A    between atoms: _489  and  _490
REMARK  200  A    between atoms: _489  and  _492
REMARK  201  A    between atoms: _492  and  _493
REMARK  202  A    between atoms: _497  and  _498
REMARK  203  A    between atoms: _503  and  _505
REMARK  204  A    between atoms: _505  and  _506
REMARK  205  A    between atoms: _509  and  _511
REMARK  206  A    between atoms: _511  and  _512
REMARK  207  A    between atoms: _511  and  _514
REMARK  208  A    between atoms: _514  and  _515
REMARK  209  A    between atoms: _520  and  _522
REMARK  210  A    between atoms: _522  and  _523
REMARK  211  A    between atoms: _522  and  _525
REMARK  212  A    between atoms: _525  and  _526
REMARK  213  A    between atoms: _529  and  _531
REMARK  214  A    between atoms: _531  and  _532
REMARK  215  A    between atoms: _531  and  _534
REMARK  216  A    between atoms: _534  and  _535
REMARK  217  A    between atoms: _538  and  _540
REMARK  218  A    between atoms: _540  and  _541
REMARK  219  A    between atoms: _543  and  _545
REMARK  220  A    between atoms: _545  and  _546
REMARK  221  A    between atoms: _545  and  _548
REMARK  222  A    between atoms: _548  and  _549
REMARK  223  A    between atoms: _549  and  _550
REMARK  224  A    between atoms: _550  and  _551
REMARK  225  A    between atoms: _560  and  _562
REMARK  226  A    between atoms: _562  and  _563
REMARK  227  A    between atoms: _562  and  _565
REMARK  228  A    between atoms: _565  and  _566
REMARK                            x       y       z     vdW  Elec       q    Type
REMARK                         _______ _______ _______ _____ _____    ______ ____
ROOT
ATOM      1  O   HOH     1      20.979  25.158  28.193  0.00  0.00    +0.000 OA
ENDROOT
TORSDOF 0
REMARK  Name = ../refined-set-2016/2aoe/2aoe_pocket.pdb
REMARK  228 active torsions:
REMARK  status: ('A' for Active; 'I' for Inactive)
REMARK    1  A    between atoms: _1  and  _3
REMARK    2  A    between atoms: _3  and  _4
REMARK    3  A    between atoms: _3  and  _6
REMARK    4  A    between atoms: _6  and  _7
REMARK    5  A    between atoms: _7  and  _8
REMARK    6  A    between atoms: _8  and  _9
REMARK    7  A    between atoms: _18  and  _20
REMARK    8  A    between atoms: _20  and  _21
REMARK    9  A    between atoms: _20  and  _23
REMARK   10  A    between atoms: _23  and  _24
REMARK   11  A    between atoms: _27  and  _29
REMARK   12  A    between atoms: _29  and  _30
REMARK   13  A    between atoms: _29  and  _32
REMARK   14  A    between atoms: _32  and  _33
REMARK   15  A    between atoms: _36  and  _38
REMARK   16  A    between atoms: _38  and  _39
REMARK   17  A    between atoms: _38  and  _41
REMARK   18  A    between atoms: _41  and  _42
REMARK   19  A    between atoms: _45  and  _47
REMARK   20  A    between atoms: _47  and  _48
REMARK   21  A    between atoms: _50  and  _52
REMARK   22  A    between atoms: _52  and  _53
REMARK   23  A    between atoms: _56  and  _58
REMARK   24  A    between atoms: _58  and  _59
REMARK   25  A    between atoms: _58  and  _61
REMARK   26  A    between atoms: _61  and  _62
REMARK   27  A    between atoms: _65  and  _67
REMARK   28  A    between atoms: _67  and  _68
REMARK   29  A    between atoms: _67  and  _70
REMARK   30  A    between atoms: _70  and  _71
REMARK   31  A    between atoms: _74  and  _76
REMARK   32  A    between atoms: _76  and  _77
REMARK   33  A    between atoms: _76  and  _79
REMARK   34  A    between atoms: _79  and  _80
REMARK   35  A    between atoms: _83  and  _85
REMARK   36  A    between atoms: _85  and  _86
REMARK   37  A    between atoms: _85  and  _88
REMARK   38  A    between atoms: _91  and  _93
REMARK   39  A    between atoms: _93  and  _94
REMARK   40  A    between atoms: _93  and  _96
REMARK   41  A    between atoms: _97  and  _98
REMARK   42  A    between atoms: _98  and  _99
REMARK   43  A    between atoms: _99  and  _100
REMARK   44  A    between atoms: _104  and  _106
REMARK   45  A    between atoms: _106  and  _107
REMARK   46  A    between atoms: _106  and  _109
REMARK   47  A    between atoms: _109  and  _110
REMARK   48  A    between atoms: _110  and  _111
REMARK   49  A    between atoms: _113  and  _115
REMARK   50  A    between atoms: _115  and  _116
REMARK   51  A    between atoms: _115  and  _118
REMARK   52  A    between atoms: _118  and  _119
REMARK   53  A    between atoms: _122  and  _124
REMARK   54  A    between atoms: _124  and  _125
REMARK   55  A    between atoms: _127  and  _129
REMARK   56  A    between atoms: _129  and  _130
REMARK   57  A    between atoms: _132  and  _134
REMARK   58  A    between atoms: _134  and  _135
REMARK   59  A    between atoms: _134  and  _137
REMARK   60  A    between atoms: _137  and  _138
REMARK   61  A    between atoms: _141  and  _143
REMARK   62  A    between atoms: _143  and  _144
REMARK   63  A    between atoms: _146  and  _148
REMARK   64  A    between atoms: _148  and  _149
REMARK   65  A    between atoms: _151  and  _153
REMARK   66  A    between atoms: _153  and  _154
REMARK   67  A    between atoms: _153  and  _156
REMARK   68  A    between atoms: _156  and  _157
REMARK   69  A    between atoms: _163  and  _165
REMARK   70  A    between atoms: _165  and  _166
REMARK   71  A    between atoms: _165  and  _168
REMARK   72  A    between atoms: _168  and  _169
REMARK   73  A    between atoms: _172  and  _174
REMARK   74  A    between atoms: _174  and  _175
REMARK   75  A    between atoms: _174  and  _177
REMARK   76  A    between atoms: _180  and  _182
REMARK   77  A    between atoms: _182  and  _183
REMARK   78  A    between atoms: _182  and  _185
REMARK   79  A    between atoms: _185  and  _186
REMARK   80  A    between atoms: _189  and  _191
REMARK   81  A    between atoms: _191  and  _192
REMARK   82  A    between atoms: _191  and  _194
REMARK   83  A    between atoms: _194  and  _195
REMARK   84  A    between atoms: _199  and  _200
REMARK   85  A    between atoms: _205  and  _207
REMARK   86  A    between atoms: _207  and  _208
REMARK   87  A    between atoms: _211  and  _213
REMARK   88  A    between atoms: _213  and  _214
REMARK   89  A    between atoms: _213  and  _216
REMARK   90  A    between atoms: _216  and  _217
REMARK   91  A    between atoms: _222  and  _224
REMARK   92  A    between atoms: _224  and  _225
REMARK   93  A    between atoms: _224  and  _227
REMARK   94  A    between atoms: _227  and  _228
REMARK   95  A    between atoms: _231  and  _233
REMARK   96  A    between atoms: _233  and  _234
REMARK   97  A    between atoms: _233  and  _236
REMARK   98  A    between atoms: _236  and  _237
REMARK   99  A    between atoms: _240  and  _242
REMARK  100  A    between atoms: _242  and  _243
REMARK  101  A    between atoms: _245  and  _247
REMARK  102  A    between atoms: _247  and  _248
REMARK  103  A    between atoms: _247  and  _250
REMARK  104  A    between atoms: _250  and  _251
REMARK  105  A    between atoms: _251  and  _252
REMARK  106  A    between atoms: _252  and  _253
REMARK  107  A    between atoms: _262  and  _264
REMARK  108  A    between atoms: _264  and  _265
REMARK  109  A    between atoms: _264  and  _267
REMARK  110  A    between atoms: _267  and  _268
REMARK  111  A    between atoms: _273  and  _275
REMARK  112  A    between atoms: _275  and  _276
REMARK  113  A    between atoms: _275  and  _278
REMARK  114  A    between atoms: _278  and  _279
REMARK  115  A    between atoms: _279  and  _280
REMARK  116  A    between atoms: _280  and  _281
REMARK  117  A    between atoms: _290  and  _292
REMARK  118  A    between atoms: _292  and  _293
REMARK  119  A    between atoms: _292  and  _295
REMARK  120  A    between atoms: _295  and  _296
REMARK  121  A    between atoms: _299  and  _301
REMARK  122  A    between atoms: _301  and  _302
REMARK  123  A    between atoms: _301  and  _304
REMARK  124  A    between atoms: _304  and  _305
REMARK  125  A    between atoms: _308  and  _310
REMARK  126  A    between atoms: _310  and  _311
REMARK  127  A    between atoms: _310  and  _313
REMARK  128  A    between atoms: _313  and  _314
REMARK  129  A    between atoms: _317  and  _319
REMARK  130  A    between atoms: _319  and  _320
REMARK  131  A    between atoms: _322  and  _324
REMARK  132  A    between atoms: _324  and  _325
REMARK  133  A    between atoms: _328  and  _330
REMARK  134  A    between atoms: _330  and  _331
REMARK  135  A    between atoms: _330  and  _333
REMARK  136  A    between atoms: _333  and  _334
REMARK  137  A    between atoms: _337  and  _339
REMARK  138  A    between atoms: _339  and  _340
REMARK  139  A    between atoms: _339  and  _342
REMARK  140  A    between atoms: _342  and  _343
REMARK  141  A    between atoms: _346  and  _348
REMARK  142  A    between atoms: _348  and  _349
REMARK  143  A    between atoms: _348  and  _351
REMARK  144  A    between atoms: _351  and  _352
REMARK  145  A    between atoms: _355  and  _357
REMARK  146  A    between atoms: _357  and  _358
REMARK  147  A    between atoms: _357  and  _360
REMARK  148  A    between atoms: _364  and  _365
REMARK  149  A    between atoms: _370  and  _372
REMARK  150  A    between atoms: _372  and  _373
REMARK  151  A    between atoms: _372  and  _375
REMARK  152  A    between atoms: _375  and  _376
REMARK  153  A    between atoms: _376  and  _377
REMARK  154  A    between atoms: _377  and  _378
REMARK  155  A    between atoms: _378  and  _379
REMARK  156  A    between atoms: _383  and  _385
REMARK  157  A    between atoms: _385  and  _386
REMARK  158  A    between atoms: _385  and  _388
REMARK  159  A    between atoms: _388  and  _389
REMARK  160  A    between atoms: _389  and  _390
REMARK  161  A    between atoms: _392  and  _394
REMARK  162  A    between atoms: _394  and  _395
REMARK  163  A    between atoms: _394  and  _397
REMARK  164  A    between atoms: _397  and  _398
REMARK  165  A    between atoms: _401  and  _403
REMARK  166  A    between atoms: _403  and  _404
REMARK  167  A    between atoms: _406  and  _408
REMARK  168  A    between atoms: _408  and  _409
REMARK  169  A    between atoms: _411  and  _413
REMARK  170  A    between atoms: _413  and  _414
REMARK  171  A    between atoms: _413  and  _416
REMARK  172  A    between atoms: _416  and  _417
REMARK  173  A    between atoms: _420  and  _422
REMARK  174  A    between atoms: _422  and  _423
REMARK  175  A    between atoms: _425  and  _427
REMARK  176  A    between atoms: _427  and  _428
REMARK  177  A    between atoms: _430  and  _432
REMARK  178  A    between atoms: _432  and  _433
REMARK  179  A    between atoms: _432  and  _435
REMARK  180  A    between atoms: _435  and  _436
REMARK  181  A    between atoms: _442  and  _444
REMARK  182  A    between atoms: _444  and  _445
REMARK  183  A    between atoms: _444  and  _447
REMARK  184  A    between atoms: _447  and  _448
REMARK  185  A    between atoms: _451  and  _453
REMARK  186  A    between atoms: _453  and  _454
REMARK  187  A    between atoms: _453  and  _456
REMARK  188  A    between atoms: _459  and  _461
REMARK  189  A    between atoms: _461  and  _462
REMARK  190  A    between atoms: _461  and  _464
REMARK  191  A    between atoms: _464  and  _465
REMARK  192  A    between atoms: _465  and  _466
REMARK  193  A    between atoms: _471  and  _473
REMARK  194  A    between atoms: _473  and  _474
REMARK  195  A    between atoms: _473  and  _476
REMARK  196  A    between atoms: _476  and  _477
REMARK  197  A    between atoms: _481  and  _482
REMARK  198  A    between atoms: _487  and  _489
REMARK  199  A    between atoms: _489  and  _490
REMARK  200  A    between atoms: _489  and  _492
REMARK  201  A    between atoms: _492  and  _493
REMARK  202  A    between atoms: _497  and  _498
REMARK  203  A    between atoms: _503  and  _505
REMARK  204  A    between atoms: _505  and  _506
REMARK  205  A    between atoms: _509  and  _511
REMARK  206  A    between atoms: _511  and  _512
REMARK  207  A    between atoms: _511  and  _514
REMARK  208  A    between atoms: _514  and  _515
REMARK  209  A    between atoms: _520  and  _522
REMARK  210  A    between atoms: _522  and  _523
REMARK  211  A    between atoms: _522  and  _525
REMARK  212  A    between atoms: _525  and  _526
REMARK  213  A    between atoms: _529  and  _531
REMARK  214  A    between atoms: _531  and  _532
REMARK  215  A    between atoms: _531  and  _534
REMARK  216  A    between atoms: _534  and  _535
REMARK  217  A    between atoms: _538  and  _540
REMARK  218  A    between atoms: _540  and  _541
REMARK  219  A    between atoms: _543  and  _545
REMARK  220  A    between atoms: _545  and  _546
REMARK  221  A    between atoms: _545  and  _548
REMARK  222  A    between atoms: _548  and  _549
REMARK  223  A    between atoms: _549  and  _550
REMARK  224  A    between atoms: _550  and  _551
REMARK  225  A    between atoms: _560  and  _562
REMARK  226  A    between atoms: _562  and  _563
REMARK  227  A    between atoms: _562  and  _565
REMARK  228  A    between atoms: _565  and  _566
REMARK                            x       y       z     vdW  Elec       q    Type
REMARK                         _______ _______ _______ _____ _____    ______ ____
ROOT
ATOM      1  O   HOH     1      16.811  15.572   9.495  0.00  0.00    +0.000 OA
ENDROOT
TORSDOF 0
REMARK  Name = ../refined-set-2016/2aoe/2aoe_pocket.pdb
REMARK  228 active torsions:
REMARK  status: ('A' for Active; 'I' for Inactive)
REMARK    1  A    between atoms: _1  and  _3
REMARK    2  A    between atoms: _3  and  _4
REMARK    3  A    between atoms: _3  and  _6
REMARK    4  A    between atoms: _6  and  _7
REMARK    5  A    between atoms: _7  and  _8
REMARK    6  A    between atoms: _8  and  _9
REMARK    7  A    between atoms: _18  and  _20
REMARK    8  A    between atoms: _20  and  _21
REMARK    9  A    between atoms: _20  and  _23
REMARK   10  A    between atoms: _23  and  _24
REMARK   11  A    between atoms: _27  and  _29
REMARK   12  A    between atoms: _29  and  _30
REMARK   13  A    between atoms: _29  and  _32
REMARK   14  A    between atoms: _32  and  _33
REMARK   15  A    between atoms: _36  and  _38
REMARK   16  A    between atoms: _38  and  _39
REMARK   17  A    between atoms: _38  and  _41
REMARK   18  A    between atoms: _41  and  _42
REMARK   19  A    between atoms: _45  and  _47
REMARK   20  A    between atoms: _47  and  _48
REMARK   21  A    between atoms: _50  and  _52
REMARK   22  A    between atoms: _52  and  _53
REMARK   23  A    between atoms: _56  and  _58
REMARK   24  A    between atoms: _58  and  _59
REMARK   25  A    between atoms: _58  and  _61
REMARK   26  A    between atoms: _61  and  _62
REMARK   27  A    between atoms: _65  and  _67
REMARK   28  A    between atoms: _67  and  _68
REMARK   29  A    between atoms: _67  and  _70
REMARK   30  A    between atoms: _70  and  _71
REMARK   31  A    between atoms: _74  and  _76
REMARK   32  A    between atoms: _76  and  _77
REMARK   33  A    between atoms: _76  and  _79
REMARK   34  A    between atoms: _79  and  _80
REMARK   35  A    between atoms: _83  and  _85
REMARK   36  A    between atoms: _85  and  _86
REMARK   37  A    between atoms: _85  and  _88
REMARK   38  A    between atoms: _91  and  _93
REMARK   39  A    between atoms: _93  and  _94
REMARK   40  A    between atoms: _93  and  _96
REMARK   41  A    between atoms: _97  and  _98
REMARK   42  A    between atoms: _98  and  _99
REMARK   43  A    between atoms: _99  and  _100
REMARK   44  A    between atoms: _104  and  _106
REMARK   45  A    between atoms: _106  and  _107
REMARK   46  A    between atoms: _106  and  _109
REMARK   47  A    between atoms: _109  and  _110
REMARK   48  A    between atoms: _110  and  _111
REMARK   49  A    between atoms: _113  and  _115
REMARK   50  A    between atoms: _115  and  _116
REMARK   51  A    between atoms: _115  and  _118
REMARK   52  A    between atoms: _118  and  _119
REMARK   53  A    between atoms: _122  and  _124
REMARK   54  A    between atoms: _124  and  _125
REMARK   55  A    between atoms: _127  and  _129
REMARK   56  A    between atoms: _129  and  _130
REMARK   57  A    between atoms: _132  and  _134
REMARK   58  A    between atoms: _134  and  _135
REMARK   59  A    between atoms: _134  and  _137
REMARK   60  A    between atoms: _137  and  _138
REMARK   61  A    between atoms: _141  and  _143
REMARK   62  A    between atoms: _143  and  _144
REMARK   63  A    between atoms: _146  and  _148
REMARK   64  A    between atoms: _148  and  _149
REMARK   65  A    between atoms: _151  and  _153
REMARK   66  A    between atoms: _153  and  _154
REMARK   67  A    between atoms: _153  and  _156
REMARK   68  A    between atoms: _156  and  _157
REMARK   69  A    between atoms: _163  and  _165
REMARK   70  A    between atoms: _165  and  _166
REMARK   71  A    between atoms: _165  and  _168
REMARK   72  A    between atoms: _168  and  _169
REMARK   73  A    between atoms: _172  and  _174
REMARK   74  A    between atoms: _174  and  _175
REMARK   75  A    between atoms: _174  and  _177
REMARK   76  A    between atoms: _180  and  _182
REMARK   77  A    between atoms: _182  and  _183
REMARK   78  A    between atoms: _182  and  _185
REMARK   79  A    between atoms: _185  and  _186
REMARK   80  A    between atoms: _189  and  _191
REMARK   81  A    between atoms: _191  and  _192
REMARK   82  A    between atoms: _191  and  _194
REMARK   83  A    between atoms: _194  and  _195
REMARK   84  A    between atoms: _199  and  _200
REMARK   85  A    between atoms: _205  and  _207
REMARK   86  A    between atoms: _207  and  _208
REMARK   87  A    between atoms: _211  and  _213
REMARK   88  A    between atoms: _213  and  _214
REMARK   89  A    between atoms: _213  and  _216
REMARK   90  A    between atoms: _216  and  _217
REMARK   91  A    between atoms: _222  and  _224
REMARK   92  A    between atoms: _224  and  _225
REMARK   93  A    between atoms: _224  and  _227
REMARK   94  A    between atoms: _227  and  _228
REMARK   95  A    between atoms: _231  and  _233
REMARK   96  A    between atoms: _233  and  _234
REMARK   97  A    between atoms: _233  and  _236
REMARK   98  A    between atoms: _236  and  _237
REMARK   99  A    between atoms: _240  and  _242
REMARK  100  A    between atoms: _242  and  _243
REMARK  101  A    between atoms: _245  and  _247
REMARK  102  A    between atoms: _247  and  _248
REMARK  103  A    between atoms: _247  and  _250
REMARK  104  A    between atoms: _250  and  _251
REMARK  105  A    between atoms: _251  and  _252
REMARK  106  A    between atoms: _252  and  _253
REMARK  107  A    between atoms: _262  and  _264
REMARK  108  A    between atoms: _264  and  _265
REMARK  109  A    between atoms: _264  and  _267
REMARK  110  A    between atoms: _267  and  _268
REMARK  111  A    between atoms: _273  and  _275
REMARK  112  A    between atoms: _275  and  _276
REMARK  113  A    between atoms: _275  and  _278
REMARK  114  A    between atoms: _278  and  _279
REMARK  115  A    between atoms: _279  and  _280
REMARK  116  A    between atoms: _280  and  _281
REMARK  117  A    between atoms: _290  and  _292
REMARK  118  A    between atoms: _292  and  _293
REMARK  119  A    between atoms: _292  and  _295
REMARK  120  A    between atoms: _295  and  _296
REMARK  121  A    between atoms: _299  and  _301
REMARK  122  A    between atoms: _301  and  _302
REMARK  123  A    between atoms: _301  and  _304
REMARK  124  A    between atoms: _304  and  _305
REMARK  125  A    between atoms: _308  and  _310
REMARK  126  A    between atoms: _310  and  _311
REMARK  127  A    between atoms: _310  and  _313
REMARK  128  A    between atoms: _313  and  _314
REMARK  129  A    between atoms: _317  and  _319
REMARK  130  A    between atoms: _319  and  _320
REMARK  131  A    between atoms: _322  and  _324
REMARK  132  A    between atoms: _324  and  _325
REMARK  133  A    between atoms: _328  and  _330
REMARK  134  A    between atoms: _330  and  _331
REMARK  135  A    between atoms: _330  and  _333
REMARK  136  A    between atoms: _333  and  _334
REMARK  137  A    between atoms: _337  and  _339
REMARK  138  A    between atoms: _339  and  _340
REMARK  139  A    between atoms: _339  and  _342
REMARK  140  A    between atoms: _342  and  _343
REMARK  141  A    between atoms: _346  and  _348
REMARK  142  A    between atoms: _348  and  _349
REMARK  143  A    between atoms: _348  and  _351
REMARK  144  A    between atoms: _351  and  _352
REMARK  145  A    between atoms: _355  and  _357
REMARK  146  A    between atoms: _357  and  _358
REMARK  147  A    between atoms: _357  and  _360
REMARK  148  A    between atoms: _364  and  _365
REMARK  149  A    between atoms: _370  and  _372
REMARK  150  A    between atoms: _372  and  _373
REMARK  151  A    between atoms: _372  and  _375
REMARK  152  A    between atoms: _375  and  _376
REMARK  153  A    between atoms: _376  and  _377
REMARK  154  A    between atoms: _377  and  _378
REMARK  155  A    between atoms: _378  and  _379
REMARK  156  A    between atoms: _383  and  _385
REMARK  157  A    between atoms: _385  and  _386
REMARK  158  A    between atoms: _385  and  _388
REMARK  159  A    between atoms: _388  and  _389
REMARK  160  A    between atoms: _389  and  _390
REMARK  161  A    between atoms: _392  and  _394
REMARK  162  A    between atoms: _394  and  _395
REMARK  163  A    between atoms: _394  and  _397
REMARK  164  A    between atoms: _397  and  _398
REMARK  165  A    between atoms: _401  and  _403
REMARK  166  A    between atoms: _403  and  _404
REMARK  167  A    between atoms: _406  and  _408
REMARK  168  A    between atoms: _408  and  _409
REMARK  169  A    between atoms: _411  and  _413
REMARK  170  A    between atoms: _413  and  _414
REMARK  171  A    between atoms: _413  and  _416
REMARK  172  A    between atoms: _416  and  _417
REMARK  173  A    between atoms: _420  and  _422
REMARK  174  A    between atoms: _422  and  _423
REMARK  175  A    between atoms: _425  and  _427
REMARK  176  A    between atoms: _427  and  _428
REMARK  177  A    between atoms: _430  and  _432
REMARK  178  A    between atoms: _432  and  _433
REMARK  179  A    between atoms: _432  and  _435
REMARK  180  A    between atoms: _435  and  _436
REMARK  181  A    between atoms: _442  and  _444
REMARK  182  A    between atoms: _444  and  _445
REMARK  183  A    between atoms: _444  and  _447
REMARK  184  A    between atoms: _447  and  _448
REMARK  185  A    between atoms: _451  and  _453
REMARK  186  A    between atoms: _453  and  _454
REMARK  187  A    between atoms: _453  and  _456
REMARK  188  A    between atoms: _459  and  _461
REMARK  189  A    between atoms: _461  and  _462
REMARK  190  A    between atoms: _461  and  _464
REMARK  191  A    between atoms: _464  and  _465
REMARK  192  A    between atoms: _465  and  _466
REMARK  193  A    between atoms: _471  and  _473
REMARK  194  A    between atoms: _473  and  _474
REMARK  195  A    between atoms: _473  and  _476
REMARK  196  A    between atoms: _476  and  _477
REMARK  197  A    between atoms: _481  and  _482
REMARK  198  A    between atoms: _487  and  _489
REMARK  199  A    between atoms: _489  and  _490
REMARK  200  A    between atoms: _489  and  _492
REMARK  201  A    between atoms: _492  and  _493
REMARK  202  A    between atoms: _497  and  _498
REMARK  203  A    between atoms: _503  and  _505
REMARK  204  A    between atoms: _505  and  _506
REMARK  205  A    between atoms: _509  and  _511
REMARK  206  A    between atoms: _511  and  _512
REMARK  207  A    between atoms: _511  and  _514
REMARK  208  A    between atoms: _514  and  _515
REMARK  209  A    between atoms: _520  and  _522
REMARK  210  A    between atoms: _522  and  _523
REMARK  211  A    between atoms: _522  and  _525
REMARK  212  A    between atoms: _525  and  _526
REMARK  213  A    between atoms: _529  and  _531
REMARK  214  A    between atoms: _531  and  _532
REMARK  215  A    between atoms: _531  and  _534
REMARK  216  A    between atoms: _534  and  _535
REMARK  217  A    between atoms: _538  and  _540
REMARK  218  A    between atoms: _540  and  _541
REMARK  219  A    between atoms: _543  and  _545
REMARK  220  A    between atoms: _545  and  _546
REMARK  221  A    between atoms: _545  and  _548
REMARK  222  A    between atoms: _548  and  _549
REMARK  223  A    between atoms: _549  and  _550
REMARK  224  A    between atoms: _550  and  _551
REMARK  225  A    between atoms: _560  and  _562
REMARK  226  A    between atoms: _562  and  _563
REMARK  227  A    between atoms: _562  and  _565
REMARK  228  A    between atoms: _565  and  _566
REMARK                            x       y       z     vdW  Elec       q    Type
REMARK                         _______ _______ _______ _____ _____    ______ ____
ROOT
ATOM      1  O   HOH     1      29.406  22.305  19.926  0.00  0.00    +0.000 OA
ENDROOT
TORSDOF 0
REMARK  Name = ../refined-set-2016/2aoe/2aoe_pocket.pdb
REMARK  228 active torsions:
REMARK  status: ('A' for Active; 'I' for Inactive)
REMARK    1  A    between atoms: _1  and  _3
REMARK    2  A    between atoms: _3  and  _4
REMARK    3  A    between atoms: _3  and  _6
REMARK    4  A    between atoms: _6  and  _7
REMARK    5  A    between atoms: _7  and  _8
REMARK    6  A    between atoms: _8  and  _9
REMARK    7  A    between atoms: _18  and  _20
REMARK    8  A    between atoms: _20  and  _21
REMARK    9  A    between atoms: _20  and  _23
REMARK   10  A    between atoms: _23  and  _24
REMARK   11  A    between atoms: _27  and  _29
REMARK   12  A    between atoms: _29  and  _30
REMARK   13  A    between atoms: _29  and  _32
REMARK   14  A    between atoms: _32  and  _33
REMARK   15  A    between atoms: _36  and  _38
REMARK   16  A    between atoms: _38  and  _39
REMARK   17  A    between atoms: _38  and  _41
REMARK   18  A    between atoms: _41  and  _42
REMARK   19  A    between atoms: _45  and  _47
REMARK   20  A    between atoms: _47  and  _48
REMARK   21  A    between atoms: _50  and  _52
REMARK   22  A    between atoms: _52  and  _53
REMARK   23  A    between atoms: _56  and  _58
REMARK   24  A    between atoms: _58  and  _59
REMARK   25  A    between atoms: _58  and  _61
REMARK   26  A    between atoms: _61  and  _62
REMARK   27  A    between atoms: _65  and  _67
REMARK   28  A    between atoms: _67  and  _68
REMARK   29  A    between atoms: _67  and  _70
REMARK   30  A    between atoms: _70  and  _71
REMARK   31  A    between atoms: _74  and  _76
REMARK   32  A    between atoms: _76  and  _77
REMARK   33  A    between atoms: _76  and  _79
REMARK   34  A    between atoms: _79  and  _80
REMARK   35  A    between atoms: _83  and  _85
REMARK   36  A    between atoms: _85  and  _86
REMARK   37  A    between atoms: _85  and  _88
REMARK   38  A    between atoms: _91  and  _93
REMARK   39  A    between atoms: _93  and  _94
REMARK   40  A    between atoms: _93  and  _96
REMARK   41  A    between atoms: _97  and  _98
REMARK   42  A    between atoms: _98  and  _99
REMARK   43  A    between atoms: _99  and  _100
REMARK   44  A    between atoms: _104  and  _106
REMARK   45  A    between atoms: _106  and  _107
REMARK   46  A    between atoms: _106  and  _109
REMARK   47  A    between atoms: _109  and  _110
REMARK   48  A    between atoms: _110  and  _111
REMARK   49  A    between atoms: _113  and  _115
REMARK   50  A    between atoms: _115  and  _116
REMARK   51  A    between atoms: _115  and  _118
REMARK   52  A    between atoms: _118  and  _119
REMARK   53  A    between atoms: _122  and  _124
REMARK   54  A    between atoms: _124  and  _125
REMARK   55  A    between atoms: _127  and  _129
REMARK   56  A    between atoms: _129  and  _130
REMARK   57  A    between atoms: _132  and  _134
REMARK   58  A    between atoms: _134  and  _135
REMARK   59  A    between atoms: _134  and  _137
REMARK   60  A    between atoms: _137  and  _138
REMARK   61  A    between atoms: _141  and  _143
REMARK   62  A    between atoms: _143  and  _144
REMARK   63  A    between atoms: _146  and  _148
REMARK   64  A    between atoms: _148  and  _149
REMARK   65  A    between atoms: _151  and  _153
REMARK   66  A    between atoms: _153  and  _154
REMARK   67  A    between atoms: _153  and  _156
REMARK   68  A    between atoms: _156  and  _157
REMARK   69  A    between atoms: _163  and  _165
REMARK   70  A    between atoms: _165  and  _166
REMARK   71  A    between atoms: _165  and  _168
REMARK   72  A    between atoms: _168  and  _169
REMARK   73  A    between atoms: _172  and  _174
REMARK   74  A    between atoms: _174  and  _175
REMARK   75  A    between atoms: _174  and  _177
REMARK   76  A    between atoms: _180  and  _182
REMARK   77  A    between atoms: _182  and  _183
REMARK   78  A    between atoms: _182  and  _185
REMARK   79  A    between atoms: _185  and  _186
REMARK   80  A    between atoms: _189  and  _191
REMARK   81  A    between atoms: _191  and  _192
REMARK   82  A    between atoms: _191  and  _194
REMARK   83  A    between atoms: _194  and  _195
REMARK   84  A    between atoms: _199  and  _200
REMARK   85  A    between atoms: _205  and  _207
REMARK   86  A    between atoms: _207  and  _208
REMARK   87  A    between atoms: _211  and  _213
REMARK   88  A    between atoms: _213  and  _214
REMARK   89  A    between atoms: _213  and  _216
REMARK   90  A    between atoms: _216  and  _217
REMARK   91  A    between atoms: _222  and  _224
REMARK   92  A    between atoms: _224  and  _225
REMARK   93  A    between atoms: _224  and  _227
REMARK   94  A    between atoms: _227  and  _228
REMARK   95  A    between atoms: _231  and  _233
REMARK   96  A    between atoms: _233  and  _234
REMARK   97  A    between atoms: _233  and  _236
REMARK   98  A    between atoms: _236  and  _237
REMARK   99  A    between atoms: _240  and  _242
REMARK  100  A    between atoms: _242  and  _243
REMARK  101  A    between atoms: _245  and  _247
REMARK  102  A    between atoms: _247  and  _248
REMARK  103  A    between atoms: _247  and  _250
REMARK  104  A    between atoms: _250  and  _251
REMARK  105  A    between atoms: _251  and  _252
REMARK  106  A    between atoms: _252  and  _253
REMARK  107  A    between atoms: _262  and  _264
REMARK  108  A    between atoms: _264  and  _265
REMARK  109  A    between atoms: _264  and  _267
REMARK  110  A    between atoms: _267  and  _268
REMARK  111  A    between atoms: _273  and  _275
REMARK  112  A    between atoms: _275  and  _276
REMARK  113  A    between atoms: _275  and  _278
REMARK  114  A    between atoms: _278  and  _279
REMARK  115  A    between atoms: _279  and  _280
REMARK  116  A    between atoms: _280  and  _281
REMARK  117  A    between atoms: _290  and  _292
REMARK  118  A    between atoms: _292  and  _293
REMARK  119  A    between atoms: _292  and  _295
REMARK  120  A    between atoms: _295  and  _296
REMARK  121  A    between atoms: _299  and  _301
REMARK  122  A    between atoms: _301  and  _302
REMARK  123  A    between atoms: _301  and  _304
REMARK  124  A    between atoms: _304  and  _305
REMARK  125  A    between atoms: _308  and  _310
REMARK  126  A    between atoms: _310  and  _311
REMARK  127  A    between atoms: _310  and  _313
REMARK  128  A    between atoms: _313  and  _314
REMARK  129  A    between atoms: _317  and  _319
REMARK  130  A    between atoms: _319  and  _320
REMARK  131  A    between atoms: _322  and  _324
REMARK  132  A    between atoms: _324  and  _325
REMARK  133  A    between atoms: _328  and  _330
REMARK  134  A    between atoms: _330  and  _331
REMARK  135  A    between atoms: _330  and  _333
REMARK  136  A    between atoms: _333  and  _334
REMARK  137  A    between atoms: _337  and  _339
REMARK  138  A    between atoms: _339  and  _340
REMARK  139  A    between atoms: _339  and  _342
REMARK  140  A    between atoms: _342  and  _343
REMARK  141  A    between atoms: _346  and  _348
REMARK  142  A    between atoms: _348  and  _349
REMARK  143  A    between atoms: _348  and  _351
REMARK  144  A    between atoms: _351  and  _352
REMARK  145  A    between atoms: _355  and  _357
REMARK  146  A    between atoms: _357  and  _358
REMARK  147  A    between atoms: _357  and  _360
REMARK  148  A    between atoms: _364  and  _365
REMARK  149  A    between atoms: _370  and  _372
REMARK  150  A    between atoms: _372  and  _373
REMARK  151  A    between atoms: _372  and  _375
REMARK  152  A    between atoms: _375  and  _376
REMARK  153  A    between atoms: _376  and  _377
REMARK  154  A    between atoms: _377  and  _378
REMARK  155  A    between atoms: _378  and  _379
REMARK  156  A    between atoms: _383  and  _385
REMARK  157  A    between atoms: _385  and  _386
REMARK  158  A    between atoms: _385  and  _388
REMARK  159  A    between atoms: _388  and  _389
REMARK  160  A    between atoms: _389  and  _390
REMARK  161  A    between atoms: _392  and  _394
REMARK  162  A    between atoms: _394  and  _395
REMARK  163  A    between atoms: _394  and  _397
REMARK  164  A    between atoms: _397  and  _398
REMARK  165  A    between atoms: _401  and  _403
REMARK  166  A    between atoms: _403  and  _404
REMARK  167  A    between atoms: _406  and  _408
REMARK  168  A    between atoms: _408  and  _409
REMARK  169  A    between atoms: _411  and  _413
REMARK  170  A    between atoms: _413  and  _414
REMARK  171  A    between atoms: _413  and  _416
REMARK  172  A    between atoms: _416  and  _417
REMARK  173  A    between atoms: _420  and  _422
REMARK  174  A    between atoms: _422  and  _423
REMARK  175  A    between atoms: _425  and  _427
REMARK  176  A    between atoms: _427  and  _428
REMARK  177  A    between atoms: _430  and  _432
REMARK  178  A    between atoms: _432  and  _433
REMARK  179  A    between atoms: _432  and  _435
REMARK  180  A    between atoms: _435  and  _436
REMARK  181  A    between atoms: _442  and  _444
REMARK  182  A    between atoms: _444  and  _445
REMARK  183  A    between atoms: _444  and  _447
REMARK  184  A    between atoms: _447  and  _448
REMARK  185  A    between atoms: _451  and  _453
REMARK  186  A    between atoms: _453  and  _454
REMARK  187  A    between atoms: _453  and  _456
REMARK  188  A    between atoms: _459  and  _461
REMARK  189  A    between atoms: _461  and  _462
REMARK  190  A    between atoms: _461  and  _464
REMARK  191  A    between atoms: _464  and  _465
REMARK  192  A    between atoms: _465  and  _466
REMARK  193  A    between atoms: _471  and  _473
REMARK  194  A    between atoms: _473  and  _474
REMARK  195  A    between atoms: _473  and  _476
REMARK  196  A    between atoms: _476  and  _477
REMARK  197  A    between atoms: _481  and  _482
REMARK  198  A    between atoms: _487  and  _489
REMARK  199  A    between atoms: _489  and  _490
REMARK  200  A    between atoms: _489  and  _492
REMARK  201  A    between atoms: _492  and  _493
REMARK  202  A    between atoms: _497  and  _498
REMARK  203  A    between atoms: _503  and  _505
REMARK  204  A    between atoms: _505  and  _506
REMARK  205  A    between atoms: _509  and  _511
REMARK  206  A    between atoms: _511  and  _512
REMARK  207  A    between atoms: _511  and  _514
REMARK  208  A    between atoms: _514  and  _515
REMARK  209  A    between atoms: _520  and  _522
REMARK  210  A    between atoms: _522  and  _523
REMARK  211  A    between atoms: _522  and  _525
REMARK  212  A    between atoms: _525  and  _526
REMARK  213  A    between atoms: _529  and  _531
REMARK  214  A    between atoms: _531  and  _532
REMARK  215  A    between atoms: _531  and  _534
REMARK  216  A    between atoms: _534  and  _535
REMARK  217  A    between atoms: _538  and  _540
REMARK  218  A    between atoms: _540  and  _541
REMARK  219  A    between atoms: _543  and  _545
REMARK  220  A    between atoms: _545  and  _546
REMARK  221  A    between atoms: _545  and  _548
REMARK  222  A    between atoms: _548  and  _549
REMARK  223  A    between atoms: _549  and  _550
REMARK  224  A    between atoms: _550  and  _551
REMARK  225  A    between atoms: _560  and  _562
REMARK  226  A    between atoms: _562  and  _563
REMARK  227  A    between atoms: _562  and  _565
REMARK  228  A    between atoms: _565  and  _566
REMARK                            x       y       z     vdW  Elec       q    Type
REMARK                         _______ _______ _______ _____ _____    ______ ____
ROOT
ATOM      1  O   HOH     1       5.541  15.226  21.193  0.00  0.00    +0.000 OA
ENDROOT
TORSDOF 0
REMARK  Name = ../refined-set-2016/2aoe/2aoe_pocket.pdb
REMARK  228 active torsions:
REMARK  status: ('A' for Active; 'I' for Inactive)
REMARK    1  A    between atoms: _1  and  _3
REMARK    2  A    between atoms: _3  and  _4
REMARK    3  A    between atoms: _3  and  _6
REMARK    4  A    between atoms: _6  and  _7
REMARK    5  A    between atoms: _7  and  _8
REMARK    6  A    between atoms: _8  and  _9
REMARK    7  A    between atoms: _18  and  _20
REMARK    8  A    between atoms: _20  and  _21
REMARK    9  A    between atoms: _20  and  _23
REMARK   10  A    between atoms: _23  and  _24
REMARK   11  A    between atoms: _27  and  _29
REMARK   12  A    between atoms: _29  and  _30
REMARK   13  A    between atoms: _29  and  _32
REMARK   14  A    between atoms: _32  and  _33
REMARK   15  A    between atoms: _36  and  _38
REMARK   16  A    between atoms: _38  and  _39
REMARK   17  A    between atoms: _38  and  _41
REMARK   18  A    between atoms: _41  and  _42
REMARK   19  A    between atoms: _45  and  _47
REMARK   20  A    between atoms: _47  and  _48
REMARK   21  A    between atoms: _50  and  _52
REMARK   22  A    between atoms: _52  and  _53
REMARK   23  A    between atoms: _56  and  _58
REMARK   24  A    between atoms: _58  and  _59
REMARK   25  A    between atoms: _58  and  _61
REMARK   26  A    between atoms: _61  and  _62
REMARK   27  A    between atoms: _65  and  _67
REMARK   28  A    between atoms: _67  and  _68
REMARK   29  A    between atoms: _67  and  _70
REMARK   30  A    between atoms: _70  and  _71
REMARK   31  A    between atoms: _74  and  _76
REMARK   32  A    between atoms: _76  and  _77
REMARK   33  A    between atoms: _76  and  _79
REMARK   34  A    between atoms: _79  and  _80
REMARK   35  A    between atoms: _83  and  _85
REMARK   36  A    between atoms: _85  and  _86
REMARK   37  A    between atoms: _85  and  _88
REMARK   38  A    between atoms: _91  and  _93
REMARK   39  A    between atoms: _93  and  _94
REMARK   40  A    between atoms: _93  and  _96
REMARK   41  A    between atoms: _97  and  _98
REMARK   42  A    between atoms: _98  and  _99
REMARK   43  A    between atoms: _99  and  _100
REMARK   44  A    between atoms: _104  and  _106
REMARK   45  A    between atoms: _106  and  _107
REMARK   46  A    between atoms: _106  and  _109
REMARK   47  A    between atoms: _109  and  _110
REMARK   48  A    between atoms: _110  and  _111
REMARK   49  A    between atoms: _113  and  _115
REMARK   50  A    between atoms: _115  and  _116
REMARK   51  A    between atoms: _115  and  _118
REMARK   52  A    between atoms: _118  and  _119
REMARK   53  A    between atoms: _122  and  _124
REMARK   54  A    between atoms: _124  and  _125
REMARK   55  A    between atoms: _127  and  _129
REMARK   56  A    between atoms: _129  and  _130
REMARK   57  A    between atoms: _132  and  _134
REMARK   58  A    between atoms: _134  and  _135
REMARK   59  A    between atoms: _134  and  _137
REMARK   60  A    between atoms: _137  and  _138
REMARK   61  A    between atoms: _141  and  _143
REMARK   62  A    between atoms: _143  and  _144
REMARK   63  A    between atoms: _146  and  _148
REMARK   64  A    between atoms: _148  and  _149
REMARK   65  A    between atoms: _151  and  _153
REMARK   66  A    between atoms: _153  and  _154
REMARK   67  A    between atoms: _153  and  _156
REMARK   68  A    between atoms: _156  and  _157
REMARK   69  A    between atoms: _163  and  _165
REMARK   70  A    between atoms: _165  and  _166
REMARK   71  A    between atoms: _165  and  _168
REMARK   72  A    between atoms: _168  and  _169
REMARK   73  A    between atoms: _172  and  _174
REMARK   74  A    between atoms: _174  and  _175
REMARK   75  A    between atoms: _174  and  _177
REMARK   76  A    between atoms: _180  and  _182
REMARK   77  A    between atoms: _182  and  _183
REMARK   78  A    between atoms: _182  and  _185
REMARK   79  A    between atoms: _185  and  _186
REMARK   80  A    between atoms: _189  and  _191
REMARK   81  A    between atoms: _191  and  _192
REMARK   82  A    between atoms: _191  and  _194
REMARK   83  A    between atoms: _194  and  _195
REMARK   84  A    between atoms: _199  and  _200
REMARK   85  A    between atoms: _205  and  _207
REMARK   86  A    between atoms: _207  and  _208
REMARK   87  A    between atoms: _211  and  _213
REMARK   88  A    between atoms: _213  and  _214
REMARK   89  A    between atoms: _213  and  _216
REMARK   90  A    between atoms: _216  and  _217
REMARK   91  A    between atoms: _222  and  _224
REMARK   92  A    between atoms: _224  and  _225
REMARK   93  A    between atoms: _224  and  _227
REMARK   94  A    between atoms: _227  and  _228
REMARK   95  A    between atoms: _231  and  _233
REMARK   96  A    between atoms: _233  and  _234
REMARK   97  A    between atoms: _233  and  _236
REMARK   98  A    between atoms: _236  and  _237
REMARK   99  A    between atoms: _240  and  _242
REMARK  100  A    between atoms: _242  and  _243
REMARK  101  A    between atoms: _245  and  _247
REMARK  102  A    between atoms: _247  and  _248
REMARK  103  A    between atoms: _247  and  _250
REMARK  104  A    between atoms: _250  and  _251
REMARK  105  A    between atoms: _251  and  _252
REMARK  106  A    between atoms: _252  and  _253
REMARK  107  A    between atoms: _262  and  _264
REMARK  108  A    between atoms: _264  and  _265
REMARK  109  A    between atoms: _264  and  _267
REMARK  110  A    between atoms: _267  and  _268
REMARK  111  A    between atoms: _273  and  _275
REMARK  112  A    between atoms: _275  and  _276
REMARK  113  A    between atoms: _275  and  _278
REMARK  114  A    between atoms: _278  and  _279
REMARK  115  A    between atoms: _279  and  _280
REMARK  116  A    between atoms: _280  and  _281
REMARK  117  A    between atoms: _290  and  _292
REMARK  118  A    between atoms: _292  and  _293
REMARK  119  A    between atoms: _292  and  _295
REMARK  120  A    between atoms: _295  and  _296
REMARK  121  A    between atoms: _299  and  _301
REMARK  122  A    between atoms: _301  and  _302
REMARK  123  A    between atoms: _301  and  _304
REMARK  124  A    between atoms: _304  and  _305
REMARK  125  A    between atoms: _308  and  _310
REMARK  126  A    between atoms: _310  and  _311
REMARK  127  A    between atoms: _310  and  _313
REMARK  128  A    between atoms: _313  and  _314
REMARK  129  A    between atoms: _317  and  _319
REMARK  130  A    between atoms: _319  and  _320
REMARK  131  A    between atoms: _322  and  _324
REMARK  132  A    between atoms: _324  and  _325
REMARK  133  A    between atoms: _328  and  _330
REMARK  134  A    between atoms: _330  and  _331
REMARK  135  A    between atoms: _330  and  _333
REMARK  136  A    between atoms: _333  and  _334
REMARK  137  A    between atoms: _337  and  _339
REMARK  138  A    between atoms: _339  and  _340
REMARK  139  A    between atoms: _339  and  _342
REMARK  140  A    between atoms: _342  and  _343
REMARK  141  A    between atoms: _346  and  _348
REMARK  142  A    between atoms: _348  and  _349
REMARK  143  A    between atoms: _348  and  _351
REMARK  144  A    between atoms: _351  and  _352
REMARK  145  A    between atoms: _355  and  _357
REMARK  146  A    between atoms: _357  and  _358
REMARK  147  A    between atoms: _357  and  _360
REMARK  148  A    between atoms: _364  and  _365
REMARK  149  A    between atoms: _370  and  _372
REMARK  150  A    between atoms: _372  and  _373
REMARK  151  A    between atoms: _372  and  _375
REMARK  152  A    between atoms: _375  and  _376
REMARK  153  A    between atoms: _376  and  _377
REMARK  154  A    between atoms: _377  and  _378
REMARK  155  A    between atoms: _378  and  _379
REMARK  156  A    between atoms: _383  and  _385
REMARK  157  A    between atoms: _385  and  _386
REMARK  158  A    between atoms: _385  and  _388
REMARK  159  A    between atoms: _388  and  _389
REMARK  160  A    between atoms: _389  and  _390
REMARK  161  A    between atoms: _392  and  _394
REMARK  162  A    between atoms: _394  and  _395
REMARK  163  A    between atoms: _394  and  _397
REMARK  164  A    between atoms: _397  and  _398
REMARK  165  A    between atoms: _401  and  _403
REMARK  166  A    between atoms: _403  and  _404
REMARK  167  A    between atoms: _406  and  _408
REMARK  168  A    between atoms: _408  and  _409
REMARK  169  A    between atoms: _411  and  _413
REMARK  170  A    between atoms: _413  and  _414
REMARK  171  A    between atoms: _413  and  _416
REMARK  172  A    between atoms: _416  and  _417
REMARK  173  A    between atoms: _420  and  _422
REMARK  174  A    between atoms: _422  and  _423
REMARK  175  A    between atoms: _425  and  _427
REMARK  176  A    between atoms: _427  and  _428
REMARK  177  A    between atoms: _430  and  _432
REMARK  178  A    between atoms: _432  and  _433
REMARK  179  A    between atoms: _432  and  _435
REMARK  180  A    between atoms: _435  and  _436
REMARK  181  A    between atoms: _442  and  _444
REMARK  182  A    between atoms: _444  and  _445
REMARK  183  A    between atoms: _444  and  _447
REMARK  184  A    between atoms: _447  and  _448
REMARK  185  A    between atoms: _451  and  _453
REMARK  186  A    between atoms: _453  and  _454
REMARK  187  A    between atoms: _453  and  _456
REMARK  188  A    between atoms: _459  and  _461
REMARK  189  A    between atoms: _461  and  _462
REMARK  190  A    between atoms: _461  and  _464
REMARK  191  A    between atoms: _464  and  _465
REMARK  192  A    between atoms: _465  and  _466
REMARK  193  A    between atoms: _471  and  _473
REMARK  194  A    between atoms: _473  and  _474
REMARK  195  A    between atoms: _473  and  _476
REMARK  196  A    between atoms: _476  and  _477
REMARK  197  A    between atoms: _481  and  _482
REMARK  198  A    between atoms: _487  and  _489
REMARK  199  A    between atoms: _489  and  _490
REMARK  200  A    between atoms: _489  and  _492
REMARK  201  A    between atoms: _492  and  _493
REMARK  202  A    between atoms: _497  and  _498
REMARK  203  A    between atoms: _503  and  _505
REMARK  204  A    between atoms: _505  and  _506
REMARK  205  A    between atoms: _509  and  _511
REMARK  206  A    between atoms: _511  and  _512
REMARK  207  A    between atoms: _511  and  _514
REMARK  208  A    between atoms: _514  and  _515
REMARK  209  A    between atoms: _520  and  _522
REMARK  210  A    between atoms: _522  and  _523
REMARK  211  A    between atoms: _522  and  _525
REMARK  212  A    between atoms: _525  and  _526
REMARK  213  A    between atoms: _529  and  _531
REMARK  214  A    between atoms: _531  and  _532
REMARK  215  A    between atoms: _531  and  _534
REMARK  216  A    between atoms: _534  and  _535
REMARK  217  A    between atoms: _538  and  _540
REMARK  218  A    between atoms: _540  and  _541
REMARK  219  A    between atoms: _543  and  _545
REMARK  220  A    between atoms: _545  and  _546
REMARK  221  A    between atoms: _545  and  _548
REMARK  222  A    between atoms: _548  and  _549
REMARK  223  A    between atoms: _549  and  _550
REMARK  224  A    between atoms: _550  and  _551
REMARK  225  A    between atoms: _560  and  _562
REMARK  226  A    between atoms: _562  and  _563
REMARK  227  A    between atoms: _562  and  _565
REMARK  228  A    between atoms: _565  and  _566
REMARK                            x       y       z     vdW  Elec       q    Type
REMARK                         _______ _______ _______ _____ _____    ______ ____
ROOT
ATOM      1  O   HOH     1       1.766  19.584  18.705  0.00  0.00    +0.000 OA
ENDROOT
TORSDOF 0
REMARK  Name = ../refined-set-2016/2aoe/2aoe_pocket.pdb
REMARK  228 active torsions:
REMARK  status: ('A' for Active; 'I' for Inactive)
REMARK    1  A    between atoms: _1  and  _3
REMARK    2  A    between atoms: _3  and  _4
REMARK    3  A    between atoms: _3  and  _6
REMARK    4  A    between atoms: _6  and  _7
REMARK    5  A    between atoms: _7  and  _8
REMARK    6  A    between atoms: _8  and  _9
REMARK    7  A    between atoms: _18  and  _20
REMARK    8  A    between atoms: _20  and  _21
REMARK    9  A    between atoms: _20  and  _23
REMARK   10  A    between atoms: _23  and  _24
REMARK   11  A    between atoms: _27  and  _29
REMARK   12  A    between atoms: _29  and  _30
REMARK   13  A    between atoms: _29  and  _32
REMARK   14  A    between atoms: _32  and  _33
REMARK   15  A    between atoms: _36  and  _38
REMARK   16  A    between atoms: _38  and  _39
REMARK   17  A    between atoms: _38  and  _41
REMARK   18  A    between atoms: _41  and  _42
REMARK   19  A    between atoms: _45  and  _47
REMARK   20  A    between atoms: _47  and  _48
REMARK   21  A    between atoms: _50  and  _52
REMARK   22  A    between atoms: _52  and  _53
REMARK   23  A    between atoms: _56  and  _58
REMARK   24  A    between atoms: _58  and  _59
REMARK   25  A    between atoms: _58  and  _61
REMARK   26  A    between atoms: _61  and  _62
REMARK   27  A    between atoms: _65  and  _67
REMARK   28  A    between atoms: _67  and  _68
REMARK   29  A    between atoms: _67  and  _70
REMARK   30  A    between atoms: _70  and  _71
REMARK   31  A    between atoms: _74  and  _76
REMARK   32  A    between atoms: _76  and  _77
REMARK   33  A    between atoms: _76  and  _79
REMARK   34  A    between atoms: _79  and  _80
REMARK   35  A    between atoms: _83  and  _85
REMARK   36  A    between atoms: _85  and  _86
REMARK   37  A    between atoms: _85  and  _88
REMARK   38  A    between atoms: _91  and  _93
REMARK   39  A    between atoms: _93  and  _94
REMARK   40  A    between atoms: _93  and  _96
REMARK   41  A    between atoms: _97  and  _98
REMARK   42  A    between atoms: _98  and  _99
REMARK   43  A    between atoms: _99  and  _100
REMARK   44  A    between atoms: _104  and  _106
REMARK   45  A    between atoms: _106  and  _107
REMARK   46  A    between atoms: _106  and  _109
REMARK   47  A    between atoms: _109  and  _110
REMARK   48  A    between atoms: _110  and  _111
REMARK   49  A    between atoms: _113  and  _115
REMARK   50  A    between atoms: _115  and  _116
REMARK   51  A    between atoms: _115  and  _118
REMARK   52  A    between atoms: _118  and  _119
REMARK   53  A    between atoms: _122  and  _124
REMARK   54  A    between atoms: _124  and  _125
REMARK   55  A    between atoms: _127  and  _129
REMARK   56  A    between atoms: _129  and  _130
REMARK   57  A    between atoms: _132  and  _134
REMARK   58  A    between atoms: _134  and  _135
REMARK   59  A    between atoms: _134  and  _137
REMARK   60  A    between atoms: _137  and  _138
REMARK   61  A    between atoms: _141  and  _143
REMARK   62  A    between atoms: _143  and  _144
REMARK   63  A    between atoms: _146  and  _148
REMARK   64  A    between atoms: _148  and  _149
REMARK   65  A    between atoms: _151  and  _153
REMARK   66  A    between atoms: _153  and  _154
REMARK   67  A    between atoms: _153  and  _156
REMARK   68  A    between atoms: _156  and  _157
REMARK   69  A    between atoms: _163  and  _165
REMARK   70  A    between atoms: _165  and  _166
REMARK   71  A    between atoms: _165  and  _168
REMARK   72  A    between atoms: _168  and  _169
REMARK   73  A    between atoms: _172  and  _174
REMARK   74  A    between atoms: _174  and  _175
REMARK   75  A    between atoms: _174  and  _177
REMARK   76  A    between atoms: _180  and  _182
REMARK   77  A    between atoms: _182  and  _183
REMARK   78  A    between atoms: _182  and  _185
REMARK   79  A    between atoms: _185  and  _186
REMARK   80  A    between atoms: _189  and  _191
REMARK   81  A    between atoms: _191  and  _192
REMARK   82  A    between atoms: _191  and  _194
REMARK   83  A    between atoms: _194  and  _195
REMARK   84  A    between atoms: _199  and  _200
REMARK   85  A    between atoms: _205  and  _207
REMARK   86  A    between atoms: _207  and  _208
REMARK   87  A    between atoms: _211  and  _213
REMARK   88  A    between atoms: _213  and  _214
REMARK   89  A    between atoms: _213  and  _216
REMARK   90  A    between atoms: _216  and  _217
REMARK   91  A    between atoms: _222  and  _224
REMARK   92  A    between atoms: _224  and  _225
REMARK   93  A    between atoms: _224  and  _227
REMARK   94  A    between atoms: _227  and  _228
REMARK   95  A    between atoms: _231  and  _233
REMARK   96  A    between atoms: _233  and  _234
REMARK   97  A    between atoms: _233  and  _236
REMARK   98  A    between atoms: _236  and  _237
REMARK   99  A    between atoms: _240  and  _242
REMARK  100  A    between atoms: _242  and  _243
REMARK  101  A    between atoms: _245  and  _247
REMARK  102  A    between atoms: _247  and  _248
REMARK  103  A    between atoms: _247  and  _250
REMARK  104  A    between atoms: _250  and  _251
REMARK  105  A    between atoms: _251  and  _252
REMARK  106  A    between atoms: _252  and  _253
REMARK  107  A    between atoms: _262  and  _264
REMARK  108  A    between atoms: _264  and  _265
REMARK  109  A    between atoms: _264  and  _267
REMARK  110  A    between atoms: _267  and  _268
REMARK  111  A    between atoms: _273  and  _275
REMARK  112  A    between atoms: _275  and  _276
REMARK  113  A    between atoms: _275  and  _278
REMARK  114  A    between atoms: _278  and  _279
REMARK  115  A    between atoms: _279  and  _280
REMARK  116  A    between atoms: _280  and  _281
REMARK  117  A    between atoms: _290  and  _292
REMARK  118  A    between atoms: _292  and  _293
REMARK  119  A    between atoms: _292  and  _295
REMARK  120  A    between atoms: _295  and  _296
REMARK  121  A    between atoms: _299  and  _301
REMARK  122  A    between atoms: _301  and  _302
REMARK  123  A    between atoms: _301  and  _304
REMARK  124  A    between atoms: _304  and  _305
REMARK  125  A    between atoms: _308  and  _310
REMARK  126  A    between atoms: _310  and  _311
REMARK  127  A    between atoms: _310  and  _313
REMARK  128  A    between atoms: _313  and  _314
REMARK  129  A    between atoms: _317  and  _319
REMARK  130  A    between atoms: _319  and  _320
REMARK  131  A    between atoms: _322  and  _324
REMARK  132  A    between atoms: _324  and  _325
REMARK  133  A    between atoms: _328  and  _330
REMARK  134  A    between atoms: _330  and  _331
REMARK  135  A    between atoms: _330  and  _333
REMARK  136  A    between atoms: _333  and  _334
REMARK  137  A    between atoms: _337  and  _339
REMARK  138  A    between atoms: _339  and  _340
REMARK  139  A    between atoms: _339  and  _342
REMARK  140  A    between atoms: _342  and  _343
REMARK  141  A    between atoms: _346  and  _348
REMARK  142  A    between atoms: _348  and  _349
REMARK  143  A    between atoms: _348  and  _351
REMARK  144  A    between atoms: _351  and  _352
REMARK  145  A    between atoms: _355  and  _357
REMARK  146  A    between atoms: _357  and  _358
REMARK  147  A    between atoms: _357  and  _360
REMARK  148  A    between atoms: _364  and  _365
REMARK  149  A    between atoms: _370  and  _372
REMARK  150  A    between atoms: _372  and  _373
REMARK  151  A    between atoms: _372  and  _375
REMARK  152  A    between atoms: _375  and  _376
REMARK  153  A    between atoms: _376  and  _377
REMARK  154  A    between atoms: _377  and  _378
REMARK  155  A    between atoms: _378  and  _379
REMARK  156  A    between atoms: _383  and  _385
REMARK  157  A    between atoms: _385  and  _386
REMARK  158  A    between atoms: _385  and  _388
REMARK  159  A    between atoms: _388  and  _389
REMARK  160  A    between atoms: _389  and  _390
REMARK  161  A    between atoms: _392  and  _394
REMARK  162  A    between atoms: _394  and  _395
REMARK  163  A    between atoms: _394  and  _397
REMARK  164  A    between atoms: _397  and  _398
REMARK  165  A    between atoms: _401  and  _403
REMARK  166  A    between atoms: _403  and  _404
REMARK  167  A    between atoms: _406  and  _408
REMARK  168  A    between atoms: _408  and  _409
REMARK  169  A    between atoms: _411  and  _413
REMARK  170  A    between atoms: _413  and  _414
REMARK  171  A    between atoms: _413  and  _416
REMARK  172  A    between atoms: _416  and  _417
REMARK  173  A    between atoms: _420  and  _422
REMARK  174  A    between atoms: _422  and  _423
REMARK  175  A    between atoms: _425  and  _427
REMARK  176  A    between atoms: _427  and  _428
REMARK  177  A    between atoms: _430  and  _432
REMARK  178  A    between atoms: _432  and  _433
REMARK  179  A    between atoms: _432  and  _435
REMARK  180  A    between atoms: _435  and  _436
REMARK  181  A    between atoms: _442  and  _444
REMARK  182  A    between atoms: _444  and  _445
REMARK  183  A    between atoms: _444  and  _447
REMARK  184  A    between atoms: _447  and  _448
REMARK  185  A    between atoms: _451  and  _453
REMARK  186  A    between atoms: _453  and  _454
REMARK  187  A    between atoms: _453  and  _456
REMARK  188  A    between atoms: _459  and  _461
REMARK  189  A    between atoms: _461  and  _462
REMARK  190  A    between atoms: _461  and  _464
REMARK  191  A    between atoms: _464  and  _465
REMARK  192  A    between atoms: _465  and  _466
REMARK  193  A    between atoms: _471  and  _473
REMARK  194  A    between atoms: _473  and  _474
REMARK  195  A    between atoms: _473  and  _476
REMARK  196  A    between atoms: _476  and  _477
REMARK  197  A    between atoms: _481  and  _482
REMARK  198  A    between atoms: _487  and  _489
REMARK  199  A    between atoms: _489  and  _490
REMARK  200  A    between atoms: _489  and  _492
REMARK  201  A    between atoms: _492  and  _493
REMARK  202  A    between atoms: _497  and  _498
REMARK  203  A    between atoms: _503  and  _505
REMARK  204  A    between atoms: _505  and  _506
REMARK  205  A    between atoms: _509  and  _511
REMARK  206  A    between atoms: _511  and  _512
REMARK  207  A    between atoms: _511  and  _514
REMARK  208  A    between atoms: _514  and  _515
REMARK  209  A    between atoms: _520  and  _522
REMARK  210  A    between atoms: _522  and  _523
REMARK  211  A    between atoms: _522  and  _525
REMARK  212  A    between atoms: _525  and  _526
REMARK  213  A    between atoms: _529  and  _531
REMARK  214  A    between atoms: _531  and  _532
REMARK  215  A    between atoms: _531  and  _534
REMARK  216  A    between atoms: _534  and  _535
REMARK  217  A    between atoms: _538  and  _540
REMARK  218  A    between atoms: _540  and  _541
REMARK  219  A    between atoms: _543  and  _545
REMARK  220  A    between atoms: _545  and  _546
REMARK  221  A    between atoms: _545  and  _548
REMARK  222  A    between atoms: _548  and  _549
REMARK  223  A    between atoms: _549  and  _550
REMARK  224  A    between atoms: _550  and  _551
REMARK  225  A    between atoms: _560  and  _562
REMARK  226  A    between atoms: _562  and  _563
REMARK  227  A    between atoms: _562  and  _565
REMARK  228  A    between atoms: _565  and  _566
REMARK                            x       y       z     vdW  Elec       q    Type
REMARK                         _______ _______ _______ _____ _____    ______ ____
ROOT
ATOM      1  O   HOH     1      26.350  22.554  23.459  0.00  0.00    +0.000 OA
ENDROOT
TORSDOF 0
REMARK  Name = ../refined-set-2016/2aoe/2aoe_pocket.pdb
REMARK  228 active torsions:
REMARK  status: ('A' for Active; 'I' for Inactive)
REMARK    1  A    between atoms: _1  and  _3
REMARK    2  A    between atoms: _3  and  _4
REMARK    3  A    between atoms: _3  and  _6
REMARK    4  A    between atoms: _6  and  _7
REMARK    5  A    between atoms: _7  and  _8
REMARK    6  A    between atoms: _8  and  _9
REMARK    7  A    between atoms: _18  and  _20
REMARK    8  A    between atoms: _20  and  _21
REMARK    9  A    between atoms: _20  and  _23
REMARK   10  A    between atoms: _23  and  _24
REMARK   11  A    between atoms: _27  and  _29
REMARK   12  A    between atoms: _29  and  _30
REMARK   13  A    between atoms: _29  and  _32
REMARK   14  A    between atoms: _32  and  _33
REMARK   15  A    between atoms: _36  and  _38
REMARK   16  A    between atoms: _38  and  _39
REMARK   17  A    between atoms: _38  and  _41
REMARK   18  A    between atoms: _41  and  _42
REMARK   19  A    between atoms: _45  and  _47
REMARK   20  A    between atoms: _47  and  _48
REMARK   21  A    between atoms: _50  and  _52
REMARK   22  A    between atoms: _52  and  _53
REMARK   23  A    between atoms: _56  and  _58
REMARK   24  A    between atoms: _58  and  _59
REMARK   25  A    between atoms: _58  and  _61
REMARK   26  A    between atoms: _61  and  _62
REMARK   27  A    between atoms: _65  and  _67
REMARK   28  A    between atoms: _67  and  _68
REMARK   29  A    between atoms: _67  and  _70
REMARK   30  A    between atoms: _70  and  _71
REMARK   31  A    between atoms: _74  and  _76
REMARK   32  A    between atoms: _76  and  _77
REMARK   33  A    between atoms: _76  and  _79
REMARK   34  A    between atoms: _79  and  _80
REMARK   35  A    between atoms: _83  and  _85
REMARK   36  A    between atoms: _85  and  _86
REMARK   37  A    between atoms: _85  and  _88
REMARK   38  A    between atoms: _91  and  _93
REMARK   39  A    between atoms: _93  and  _94
REMARK   40  A    between atoms: _93  and  _96
REMARK   41  A    between atoms: _97  and  _98
REMARK   42  A    between atoms: _98  and  _99
REMARK   43  A    between atoms: _99  and  _100
REMARK   44  A    between atoms: _104  and  _106
REMARK   45  A    between atoms: _106  and  _107
REMARK   46  A    between atoms: _106  and  _109
REMARK   47  A    between atoms: _109  and  _110
REMARK   48  A    between atoms: _110  and  _111
REMARK   49  A    between atoms: _113  and  _115
REMARK   50  A    between atoms: _115  and  _116
REMARK   51  A    between atoms: _115  and  _118
REMARK   52  A    between atoms: _118  and  _119
REMARK   53  A    between atoms: _122  and  _124
REMARK   54  A    between atoms: _124  and  _125
REMARK   55  A    between atoms: _127  and  _129
REMARK   56  A    between atoms: _129  and  _130
REMARK   57  A    between atoms: _132  and  _134
REMARK   58  A    between atoms: _134  and  _135
REMARK   59  A    between atoms: _134  and  _137
REMARK   60  A    between atoms: _137  and  _138
REMARK   61  A    between atoms: _141  and  _143
REMARK   62  A    between atoms: _143  and  _144
REMARK   63  A    between atoms: _146  and  _148
REMARK   64  A    between atoms: _148  and  _149
REMARK   65  A    between atoms: _151  and  _153
REMARK   66  A    between atoms: _153  and  _154
REMARK   67  A    between atoms: _153  and  _156
REMARK   68  A    between atoms: _156  and  _157
REMARK   69  A    between atoms: _163  and  _165
REMARK   70  A    between atoms: _165  and  _166
REMARK   71  A    between atoms: _165  and  _168
REMARK   72  A    between atoms: _168  and  _169
REMARK   73  A    between atoms: _172  and  _174
REMARK   74  A    between atoms: _174  and  _175
REMARK   75  A    between atoms: _174  and  _177
REMARK   76  A    between atoms: _180  and  _182
REMARK   77  A    between atoms: _182  and  _183
REMARK   78  A    between atoms: _182  and  _185
REMARK   79  A    between atoms: _185  and  _186
REMARK   80  A    between atoms: _189  and  _191
REMARK   81  A    between atoms: _191  and  _192
REMARK   82  A    between atoms: _191  and  _194
REMARK   83  A    between atoms: _194  and  _195
REMARK   84  A    between atoms: _199  and  _200
REMARK   85  A    between atoms: _205  and  _207
REMARK   86  A    between atoms: _207  and  _208
REMARK   87  A    between atoms: _211  and  _213
REMARK   88  A    between atoms: _213  and  _214
REMARK   89  A    between atoms: _213  and  _216
REMARK   90  A    between atoms: _216  and  _217
REMARK   91  A    between atoms: _222  and  _224
REMARK   92  A    between atoms: _224  and  _225
REMARK   93  A    between atoms: _224  and  _227
REMARK   94  A    between atoms: _227  and  _228
REMARK   95  A    between atoms: _231  and  _233
REMARK   96  A    between atoms: _233  and  _234
REMARK   97  A    between atoms: _233  and  _236
REMARK   98  A    between atoms: _236  and  _237
REMARK   99  A    between atoms: _240  and  _242
REMARK  100  A    between atoms: _242  and  _243
REMARK  101  A    between atoms: _245  and  _247
REMARK  102  A    between atoms: _247  and  _248
REMARK  103  A    between atoms: _247  and  _250
REMARK  104  A    between atoms: _250  and  _251
REMARK  105  A    between atoms: _251  and  _252
REMARK  106  A    between atoms: _252  and  _253
REMARK  107  A    between atoms: _262  and  _264
REMARK  108  A    between atoms: _264  and  _265
REMARK  109  A    between atoms: _264  and  _267
REMARK  110  A    between atoms: _267  and  _268
REMARK  111  A    between atoms: _273  and  _275
REMARK  112  A    between atoms: _275  and  _276
REMARK  113  A    between atoms: _275  and  _278
REMARK  114  A    between atoms: _278  and  _279
REMARK  115  A    between atoms: _279  and  _280
REMARK  116  A    between atoms: _280  and  _281
REMARK  117  A    between atoms: _290  and  _292
REMARK  118  A    between atoms: _292  and  _293
REMARK  119  A    between atoms: _292  and  _295
REMARK  120  A    between atoms: _295  and  _296
REMARK  121  A    between atoms: _299  and  _301
REMARK  122  A    between atoms: _301  and  _302
REMARK  123  A    between atoms: _301  and  _304
REMARK  124  A    between atoms: _304  and  _305
REMARK  125  A    between atoms: _308  and  _310
REMARK  126  A    between atoms: _310  and  _311
REMARK  127  A    between atoms: _310  and  _313
REMARK  128  A    between atoms: _313  and  _314
REMARK  129  A    between atoms: _317  and  _319
REMARK  130  A    between atoms: _319  and  _320
REMARK  131  A    between atoms: _322  and  _324
REMARK  132  A    between atoms: _324  and  _325
REMARK  133  A    between atoms: _328  and  _330
REMARK  134  A    between atoms: _330  and  _331
REMARK  135  A    between atoms: _330  and  _333
REMARK  136  A    between atoms: _333  and  _334
REMARK  137  A    between atoms: _337  and  _339
REMARK  138  A    between atoms: _339  and  _340
REMARK  139  A    between atoms: _339  and  _342
REMARK  140  A    between atoms: _342  and  _343
REMARK  141  A    between atoms: _346  and  _348
REMARK  142  A    between atoms: _348  and  _349
REMARK  143  A    between atoms: _348  and  _351
REMARK  144  A    between atoms: _351  and  _352
REMARK  145  A    between atoms: _355  and  _357
REMARK  146  A    between atoms: _357  and  _358
REMARK  147  A    between atoms: _357  and  _360
REMARK  148  A    between atoms: _364  and  _365
REMARK  149  A    between atoms: _370  and  _372
REMARK  150  A    between atoms: _372  and  _373
REMARK  151  A    between atoms: _372  and  _375
REMARK  152  A    between atoms: _375  and  _376
REMARK  153  A    between atoms: _376  and  _377
REMARK  154  A    between atoms: _377  and  _378
REMARK  155  A    between atoms: _378  and  _379
REMARK  156  A    between atoms: _383  and  _385
REMARK  157  A    between atoms: _385  and  _386
REMARK  158  A    between atoms: _385  and  _388
REMARK  159  A    between atoms: _388  and  _389
REMARK  160  A    between atoms: _389  and  _390
REMARK  161  A    between atoms: _392  and  _394
REMARK  162  A    between atoms: _394  and  _395
REMARK  163  A    between atoms: _394  and  _397
REMARK  164  A    between atoms: _397  and  _398
REMARK  165  A    between atoms: _401  and  _403
REMARK  166  A    between atoms: _403  and  _404
REMARK  167  A    between atoms: _406  and  _408
REMARK  168  A    between atoms: _408  and  _409
REMARK  169  A    between atoms: _411  and  _413
REMARK  170  A    between atoms: _413  and  _414
REMARK  171  A    between atoms: _413  and  _416
REMARK  172  A    between atoms: _416  and  _417
REMARK  173  A    between atoms: _420  and  _422
REMARK  174  A    between atoms: _422  and  _423
REMARK  175  A    between atoms: _425  and  _427
REMARK  176  A    between atoms: _427  and  _428
REMARK  177  A    between atoms: _430  and  _432
REMARK  178  A    between atoms: _432  and  _433
REMARK  179  A    between atoms: _432  and  _435
REMARK  180  A    between atoms: _435  and  _436
REMARK  181  A    between atoms: _442  and  _444
REMARK  182  A    between atoms: _444  and  _445
REMARK  183  A    between atoms: _444  and  _447
REMARK  184  A    between atoms: _447  and  _448
REMARK  185  A    between atoms: _451  and  _453
REMARK  186  A    between atoms: _453  and  _454
REMARK  187  A    between atoms: _453  and  _456
REMARK  188  A    between atoms: _459  and  _461
REMARK  189  A    between atoms: _461  and  _462
REMARK  190  A    between atoms: _461  and  _464
REMARK  191  A    between atoms: _464  and  _465
REMARK  192  A    between atoms: _465  and  _466
REMARK  193  A    between atoms: _471  and  _473
REMARK  194  A    between atoms: _473  and  _474
REMARK  195  A    between atoms: _473  and  _476
REMARK  196  A    between atoms: _476  and  _477
REMARK  197  A    between atoms: _481  and  _482
REMARK  198  A    between atoms: _487  and  _489
REMARK  199  A    between atoms: _489  and  _490
REMARK  200  A    between atoms: _489  and  _492
REMARK  201  A    between atoms: _492  and  _493
REMARK  202  A    between atoms: _497  and  _498
REMARK  203  A    between atoms: _503  and  _505
REMARK  204  A    between atoms: _505  and  _506
REMARK  205  A    between atoms: _509  and  _511
REMARK  206  A    between atoms: _511  and  _512
REMARK  207  A    between atoms: _511  and  _514
REMARK  208  A    between atoms: _514  and  _515
REMARK  209  A    between atoms: _520  and  _522
REMARK  210  A    between atoms: _522  and  _523
REMARK  211  A    between atoms: _522  and  _525
REMARK  212  A    between atoms: _525  and  _526
REMARK  213  A    between atoms: _529  and  _531
REMARK  214  A    between atoms: _531  and  _532
REMARK  215  A    between atoms: _531  and  _534
REMARK  216  A    between atoms: _534  and  _535
REMARK  217  A    between atoms: _538  and  _540
REMARK  218  A    between atoms: _540  and  _541
REMARK  219  A    between atoms: _543  and  _545
REMARK  220  A    between atoms: _545  and  _546
REMARK  221  A    between atoms: _545  and  _548
REMARK  222  A    between atoms: _548  and  _549
REMARK  223  A    between atoms: _549  and  _550
REMARK  224  A    between atoms: _550  and  _551
REMARK  225  A    between atoms: _560  and  _562
REMARK  226  A    between atoms: _562  and  _563
REMARK  227  A    between atoms: _562  and  _565
REMARK  228  A    between atoms: _565  and  _566
REMARK                            x       y       z     vdW  Elec       q    Type
REMARK                         _______ _______ _______ _____ _____    ______ ____
ROOT
ATOM      1  O   HOH     1      10.932   4.785  19.533  0.00  0.00    +0.000 OA
ENDROOT
TORSDOF 0
REMARK  Name = ../refined-set-2016/2aoe/2aoe_pocket.pdb
REMARK  228 active torsions:
REMARK  status: ('A' for Active; 'I' for Inactive)
REMARK    1  A    between atoms: _1  and  _3
REMARK    2  A    between atoms: _3  and  _4
REMARK    3  A    between atoms: _3  and  _6
REMARK    4  A    between atoms: _6  and  _7
REMARK    5  A    between atoms: _7  and  _8
REMARK    6  A    between atoms: _8  and  _9
REMARK    7  A    between atoms: _18  and  _20
REMARK    8  A    between atoms: _20  and  _21
REMARK    9  A    between atoms: _20  and  _23
REMARK   10  A    between atoms: _23  and  _24
REMARK   11  A    between atoms: _27  and  _29
REMARK   12  A    between atoms: _29  and  _30
REMARK   13  A    between atoms: _29  and  _32
REMARK   14  A    between atoms: _32  and  _33
REMARK   15  A    between atoms: _36  and  _38
REMARK   16  A    between atoms: _38  and  _39
REMARK   17  A    between atoms: _38  and  _41
REMARK   18  A    between atoms: _41  and  _42
REMARK   19  A    between atoms: _45  and  _47
REMARK   20  A    between atoms: _47  and  _48
REMARK   21  A    between atoms: _50  and  _52
REMARK   22  A    between atoms: _52  and  _53
REMARK   23  A    between atoms: _56  and  _58
REMARK   24  A    between atoms: _58  and  _59
REMARK   25  A    between atoms: _58  and  _61
REMARK   26  A    between atoms: _61  and  _62
REMARK   27  A    between atoms: _65  and  _67
REMARK   28  A    between atoms: _67  and  _68
REMARK   29  A    between atoms: _67  and  _70
REMARK   30  A    between atoms: _70  and  _71
REMARK   31  A    between atoms: _74  and  _76
REMARK   32  A    between atoms: _76  and  _77
REMARK   33  A    between atoms: _76  and  _79
REMARK   34  A    between atoms: _79  and  _80
REMARK   35  A    between atoms: _83  and  _85
REMARK   36  A    between atoms: _85  and  _86
REMARK   37  A    between atoms: _85  and  _88
REMARK   38  A    between atoms: _91  and  _93
REMARK   39  A    between atoms: _93  and  _94
REMARK   40  A    between atoms: _93  and  _96
REMARK   41  A    between atoms: _97  and  _98
REMARK   42  A    between atoms: _98  and  _99
REMARK   43  A    between atoms: _99  and  _100
REMARK   44  A    between atoms: _104  and  _106
REMARK   45  A    between atoms: _106  and  _107
REMARK   46  A    between atoms: _106  and  _109
REMARK   47  A    between atoms: _109  and  _110
REMARK   48  A    between atoms: _110  and  _111
REMARK   49  A    between atoms: _113  and  _115
REMARK   50  A    between atoms: _115  and  _116
REMARK   51  A    between atoms: _115  and  _118
REMARK   52  A    between atoms: _118  and  _119
REMARK   53  A    between atoms: _122  and  _124
REMARK   54  A    between atoms: _124  and  _125
REMARK   55  A    between atoms: _127  and  _129
REMARK   56  A    between atoms: _129  and  _130
REMARK   57  A    between atoms: _132  and  _134
REMARK   58  A    between atoms: _134  and  _135
REMARK   59  A    between atoms: _134  and  _137
REMARK   60  A    between atoms: _137  and  _138
REMARK   61  A    between atoms: _141  and  _143
REMARK   62  A    between atoms: _143  and  _144
REMARK   63  A    between atoms: _146  and  _148
REMARK   64  A    between atoms: _148  and  _149
REMARK   65  A    between atoms: _151  and  _153
REMARK   66  A    between atoms: _153  and  _154
REMARK   67  A    between atoms: _153  and  _156
REMARK   68  A    between atoms: _156  and  _157
REMARK   69  A    between atoms: _163  and  _165
REMARK   70  A    between atoms: _165  and  _166
REMARK   71  A    between atoms: _165  and  _168
REMARK   72  A    between atoms: _168  and  _169
REMARK   73  A    between atoms: _172  and  _174
REMARK   74  A    between atoms: _174  and  _175
REMARK   75  A    between atoms: _174  and  _177
REMARK   76  A    between atoms: _180  and  _182
REMARK   77  A    between atoms: _182  and  _183
REMARK   78  A    between atoms: _182  and  _185
REMARK   79  A    between atoms: _185  and  _186
REMARK   80  A    between atoms: _189  and  _191
REMARK   81  A    between atoms: _191  and  _192
REMARK   82  A    between atoms: _191  and  _194
REMARK   83  A    between atoms: _194  and  _195
REMARK   84  A    between atoms: _199  and  _200
REMARK   85  A    between atoms: _205  and  _207
REMARK   86  A    between atoms: _207  and  _208
REMARK   87  A    between atoms: _211  and  _213
REMARK   88  A    between atoms: _213  and  _214
REMARK   89  A    between atoms: _213  and  _216
REMARK   90  A    between atoms: _216  and  _217
REMARK   91  A    between atoms: _222  and  _224
REMARK   92  A    between atoms: _224  and  _225
REMARK   93  A    between atoms: _224  and  _227
REMARK   94  A    between atoms: _227  and  _228
REMARK   95  A    between atoms: _231  and  _233
REMARK   96  A    between atoms: _233  and  _234
REMARK   97  A    between atoms: _233  and  _236
REMARK   98  A    between atoms: _236  and  _237
REMARK   99  A    between atoms: _240  and  _242
REMARK  100  A    between atoms: _242  and  _243
REMARK  101  A    between atoms: _245  and  _247
REMARK  102  A    between atoms: _247  and  _248
REMARK  103  A    between atoms: _247  and  _250
REMARK  104  A    between atoms: _250  and  _251
REMARK  105  A    between atoms: _251  and  _252
REMARK  106  A    between atoms: _252  and  _253
REMARK  107  A    between atoms: _262  and  _264
REMARK  108  A    between atoms: _264  and  _265
REMARK  109  A    between atoms: _264  and  _267
REMARK  110  A    between atoms: _267  and  _268
REMARK  111  A    between atoms: _273  and  _275
REMARK  112  A    between atoms: _275  and  _276
REMARK  113  A    between atoms: _275  and  _278
REMARK  114  A    between atoms: _278  and  _279
REMARK  115  A    between atoms: _279  and  _280
REMARK  116  A    between atoms: _280  and  _281
REMARK  117  A    between atoms: _290  and  _292
REMARK  118  A    between atoms: _292  and  _293
REMARK  119  A    between atoms: _292  and  _295
REMARK  120  A    between atoms: _295  and  _296
REMARK  121  A    between atoms: _299  and  _301
REMARK  122  A    between atoms: _301  and  _302
REMARK  123  A    between atoms: _301  and  _304
REMARK  124  A    between atoms: _304  and  _305
REMARK  125  A    between atoms: _308  and  _310
REMARK  126  A    between atoms: _310  and  _311
REMARK  127  A    between atoms: _310  and  _313
REMARK  128  A    between atoms: _313  and  _314
REMARK  129  A    between atoms: _317  and  _319
REMARK  130  A    between atoms: _319  and  _320
REMARK  131  A    between atoms: _322  and  _324
REMARK  132  A    between atoms: _324  and  _325
REMARK  133  A    between atoms: _328  and  _330
REMARK  134  A    between atoms: _330  and  _331
REMARK  135  A    between atoms: _330  and  _333
REMARK  136  A    between atoms: _333  and  _334
REMARK  137  A    between atoms: _337  and  _339
REMARK  138  A    between atoms: _339  and  _340
REMARK  139  A    between atoms: _339  and  _342
REMARK  140  A    between atoms: _342  and  _343
REMARK  141  A    between atoms: _346  and  _348
REMARK  142  A    between atoms: _348  and  _349
REMARK  143  A    between atoms: _348  and  _351
REMARK  144  A    between atoms: _351  and  _352
REMARK  145  A    between atoms: _355  and  _357
REMARK  146  A    between atoms: _357  and  _358
REMARK  147  A    between atoms: _357  and  _360
REMARK  148  A    between atoms: _364  and  _365
REMARK  149  A    between atoms: _370  and  _372
REMARK  150  A    between atoms: _372  and  _373
REMARK  151  A    between atoms: _372  and  _375
REMARK  152  A    between atoms: _375  and  _376
REMARK  153  A    between atoms: _376  and  _377
REMARK  154  A    between atoms: _377  and  _378
REMARK  155  A    between atoms: _378  and  _379
REMARK  156  A    between atoms: _383  and  _385
REMARK  157  A    between atoms: _385  and  _386
REMARK  158  A    between atoms: _385  and  _388
REMARK  159  A    between atoms: _388  and  _389
REMARK  160  A    between atoms: _389  and  _390
REMARK  161  A    between atoms: _392  and  _394
REMARK  162  A    between atoms: _394  and  _395
REMARK  163  A    between atoms: _394  and  _397
REMARK  164  A    between atoms: _397  and  _398
REMARK  165  A    between atoms: _401  and  _403
REMARK  166  A    between atoms: _403  and  _404
REMARK  167  A    between atoms: _406  and  _408
REMARK  168  A    between atoms: _408  and  _409
REMARK  169  A    between atoms: _411  and  _413
REMARK  170  A    between atoms: _413  and  _414
REMARK  171  A    between atoms: _413  and  _416
REMARK  172  A    between atoms: _416  and  _417
REMARK  173  A    between atoms: _420  and  _422
REMARK  174  A    between atoms: _422  and  _423
REMARK  175  A    between atoms: _425  and  _427
REMARK  176  A    between atoms: _427  and  _428
REMARK  177  A    between atoms: _430  and  _432
REMARK  178  A    between atoms: _432  and  _433
REMARK  179  A    between atoms: _432  and  _435
REMARK  180  A    between atoms: _435  and  _436
REMARK  181  A    between atoms: _442  and  _444
REMARK  182  A    between atoms: _444  and  _445
REMARK  183  A    between atoms: _444  and  _447
REMARK  184  A    between atoms: _447  and  _448
REMARK  185  A    between atoms: _451  and  _453
REMARK  186  A    between atoms: _453  and  _454
REMARK  187  A    between atoms: _453  and  _456
REMARK  188  A    between atoms: _459  and  _461
REMARK  189  A    between atoms: _461  and  _462
REMARK  190  A    between atoms: _461  and  _464
REMARK  191  A    between atoms: _464  and  _465
REMARK  192  A    between atoms: _465  and  _466
REMARK  193  A    between atoms: _471  and  _473
REMARK  194  A    between atoms: _473  and  _474
REMARK  195  A    between atoms: _473  and  _476
REMARK  196  A    between atoms: _476  and  _477
REMARK  197  A    between atoms: _481  and  _482
REMARK  198  A    between atoms: _487  and  _489
REMARK  199  A    between atoms: _489  and  _490
REMARK  200  A    between atoms: _489  and  _492
REMARK  201  A    between atoms: _492  and  _493
REMARK  202  A    between atoms: _497  and  _498
REMARK  203  A    between atoms: _503  and  _505
REMARK  204  A    between atoms: _505  and  _506
REMARK  205  A    between atoms: _509  and  _511
REMARK  206  A    between atoms: _511  and  _512
REMARK  207  A    between atoms: _511  and  _514
REMARK  208  A    between atoms: _514  and  _515
REMARK  209  A    between atoms: _520  and  _522
REMARK  210  A    between atoms: _522  and  _523
REMARK  211  A    between atoms: _522  and  _525
REMARK  212  A    between atoms: _525  and  _526
REMARK  213  A    between atoms: _529  and  _531
REMARK  214  A    between atoms: _531  and  _532
REMARK  215  A    between atoms: _531  and  _534
REMARK  216  A    between atoms: _534  and  _535
REMARK  217  A    between atoms: _538  and  _540
REMARK  218  A    between atoms: _540  and  _541
REMARK  219  A    between atoms: _543  and  _545
REMARK  220  A    between atoms: _545  and  _546
REMARK  221  A    between atoms: _545  and  _548
REMARK  222  A    between atoms: _548  and  _549
REMARK  223  A    between atoms: _549  and  _550
REMARK  224  A    between atoms: _550  and  _551
REMARK  225  A    between atoms: _560  and  _562
REMARK  226  A    between atoms: _562  and  _563
REMARK  227  A    between atoms: _562  and  _565
REMARK  228  A    between atoms: _565  and  _566
REMARK                            x       y       z     vdW  Elec       q    Type
REMARK                         _______ _______ _______ _____ _____    ______ ____
ROOT
ATOM      1  O   HOH     1       7.322  14.571  19.072  0.00  0.00    +0.000 OA
ENDROOT
TORSDOF 0
REMARK  Name = ../refined-set-2016/2aoe/2aoe_pocket.pdb
REMARK  228 active torsions:
REMARK  status: ('A' for Active; 'I' for Inactive)
REMARK    1  A    between atoms: _1  and  _3
REMARK    2  A    between atoms: _3  and  _4
REMARK    3  A    between atoms: _3  and  _6
REMARK    4  A    between atoms: _6  and  _7
REMARK    5  A    between atoms: _7  and  _8
REMARK    6  A    between atoms: _8  and  _9
REMARK    7  A    between atoms: _18  and  _20
REMARK    8  A    between atoms: _20  and  _21
REMARK    9  A    between atoms: _20  and  _23
REMARK   10  A    between atoms: _23  and  _24
REMARK   11  A    between atoms: _27  and  _29
REMARK   12  A    between atoms: _29  and  _30
REMARK   13  A    between atoms: _29  and  _32
REMARK   14  A    between atoms: _32  and  _33
REMARK   15  A    between atoms: _36  and  _38
REMARK   16  A    between atoms: _38  and  _39
REMARK   17  A    between atoms: _38  and  _41
REMARK   18  A    between atoms: _41  and  _42
REMARK   19  A    between atoms: _45  and  _47
REMARK   20  A    between atoms: _47  and  _48
REMARK   21  A    between atoms: _50  and  _52
REMARK   22  A    between atoms: _52  and  _53
REMARK   23  A    between atoms: _56  and  _58
REMARK   24  A    between atoms: _58  and  _59
REMARK   25  A    between atoms: _58  and  _61
REMARK   26  A    between atoms: _61  and  _62
REMARK   27  A    between atoms: _65  and  _67
REMARK   28  A    between atoms: _67  and  _68
REMARK   29  A    between atoms: _67  and  _70
REMARK   30  A    between atoms: _70  and  _71
REMARK   31  A    between atoms: _74  and  _76
REMARK   32  A    between atoms: _76  and  _77
REMARK   33  A    between atoms: _76  and  _79
REMARK   34  A    between atoms: _79  and  _80
REMARK   35  A    between atoms: _83  and  _85
REMARK   36  A    between atoms: _85  and  _86
REMARK   37  A    between atoms: _85  and  _88
REMARK   38  A    between atoms: _91  and  _93
REMARK   39  A    between atoms: _93  and  _94
REMARK   40  A    between atoms: _93  and  _96
REMARK   41  A    between atoms: _97  and  _98
REMARK   42  A    between atoms: _98  and  _99
REMARK   43  A    between atoms: _99  and  _100
REMARK   44  A    between atoms: _104  and  _106
REMARK   45  A    between atoms: _106  and  _107
REMARK   46  A    between atoms: _106  and  _109
REMARK   47  A    between atoms: _109  and  _110
REMARK   48  A    between atoms: _110  and  _111
REMARK   49  A    between atoms: _113  and  _115
REMARK   50  A    between atoms: _115  and  _116
REMARK   51  A    between atoms: _115  and  _118
REMARK   52  A    between atoms: _118  and  _119
REMARK   53  A    between atoms: _122  and  _124
REMARK   54  A    between atoms: _124  and  _125
REMARK   55  A    between atoms: _127  and  _129
REMARK   56  A    between atoms: _129  and  _130
REMARK   57  A    between atoms: _132  and  _134
REMARK   58  A    between atoms: _134  and  _135
REMARK   59  A    between atoms: _134  and  _137
REMARK   60  A    between atoms: _137  and  _138
REMARK   61  A    between atoms: _141  and  _143
REMARK   62  A    between atoms: _143  and  _144
REMARK   63  A    between atoms: _146  and  _148
REMARK   64  A    between atoms: _148  and  _149
REMARK   65  A    between atoms: _151  and  _153
REMARK   66  A    between atoms: _153  and  _154
REMARK   67  A    between atoms: _153  and  _156
REMARK   68  A    between atoms: _156  and  _157
REMARK   69  A    between atoms: _163  and  _165
REMARK   70  A    between atoms: _165  and  _166
REMARK   71  A    between atoms: _165  and  _168
REMARK   72  A    between atoms: _168  and  _169
REMARK   73  A    between atoms: _172  and  _174
REMARK   74  A    between atoms: _174  and  _175
REMARK   75  A    between atoms: _174  and  _177
REMARK   76  A    between atoms: _180  and  _182
REMARK   77  A    between atoms: _182  and  _183
REMARK   78  A    between atoms: _182  and  _185
REMARK   79  A    between atoms: _185  and  _186
REMARK   80  A    between atoms: _189  and  _191
REMARK   81  A    between atoms: _191  and  _192
REMARK   82  A    between atoms: _191  and  _194
REMARK   83  A    between atoms: _194  and  _195
REMARK   84  A    between atoms: _199  and  _200
REMARK   85  A    between atoms: _205  and  _207
REMARK   86  A    between atoms: _207  and  _208
REMARK   87  A    between atoms: _211  and  _213
REMARK   88  A    between atoms: _213  and  _214
REMARK   89  A    between atoms: _213  and  _216
REMARK   90  A    between atoms: _216  and  _217
REMARK   91  A    between atoms: _222  and  _224
REMARK   92  A    between atoms: _224  and  _225
REMARK   93  A    between atoms: _224  and  _227
REMARK   94  A    between atoms: _227  and  _228
REMARK   95  A    between atoms: _231  and  _233
REMARK   96  A    between atoms: _233  and  _234
REMARK   97  A    between atoms: _233  and  _236
REMARK   98  A    between atoms: _236  and  _237
REMARK   99  A    between atoms: _240  and  _242
REMARK  100  A    between atoms: _242  and  _243
REMARK  101  A    between atoms: _245  and  _247
REMARK  102  A    between atoms: _247  and  _248
REMARK  103  A    between atoms: _247  and  _250
REMARK  104  A    between atoms: _250  and  _251
REMARK  105  A    between atoms: _251  and  _252
REMARK  106  A    between atoms: _252  and  _253
REMARK  107  A    between atoms: _262  and  _264
REMARK  108  A    between atoms: _264  and  _265
REMARK  109  A    between atoms: _264  and  _267
REMARK  110  A    between atoms: _267  and  _268
REMARK  111  A    between atoms: _273  and  _275
REMARK  112  A    between atoms: _275  and  _276
REMARK  113  A    between atoms: _275  and  _278
REMARK  114  A    between atoms: _278  and  _279
REMARK  115  A    between atoms: _279  and  _280
REMARK  116  A    between atoms: _280  and  _281
REMARK  117  A    between atoms: _290  and  _292
REMARK  118  A    between atoms: _292  and  _293
REMARK  119  A    between atoms: _292  and  _295
REMARK  120  A    between atoms: _295  and  _296
REMARK  121  A    between atoms: _299  and  _301
REMARK  122  A    between atoms: _301  and  _302
REMARK  123  A    between atoms: _301  and  _304
REMARK  124  A    between atoms: _304  and  _305
REMARK  125  A    between atoms: _308  and  _310
REMARK  126  A    between atoms: _310  and  _311
REMARK  127  A    between atoms: _310  and  _313
REMARK  128  A    between atoms: _313  and  _314
REMARK  129  A    between atoms: _317  and  _319
REMARK  130  A    between atoms: _319  and  _320
REMARK  131  A    between atoms: _322  and  _324
REMARK  132  A    between atoms: _324  and  _325
REMARK  133  A    between atoms: _328  and  _330
REMARK  134  A    between atoms: _330  and  _331
REMARK  135  A    between atoms: _330  and  _333
REMARK  136  A    between atoms: _333  and  _334
REMARK  137  A    between atoms: _337  and  _339
REMARK  138  A    between atoms: _339  and  _340
REMARK  139  A    between atoms: _339  and  _342
REMARK  140  A    between atoms: _342  and  _343
REMARK  141  A    between atoms: _346  and  _348
REMARK  142  A    between atoms: _348  and  _349
REMARK  143  A    between atoms: _348  and  _351
REMARK  144  A    between atoms: _351  and  _352
REMARK  145  A    between atoms: _355  and  _357
REMARK  146  A    between atoms: _357  and  _358
REMARK  147  A    between atoms: _357  and  _360
REMARK  148  A    between atoms: _364  and  _365
REMARK  149  A    between atoms: _370  and  _372
REMARK  150  A    between atoms: _372  and  _373
REMARK  151  A    between atoms: _372  and  _375
REMARK  152  A    between atoms: _375  and  _376
REMARK  153  A    between atoms: _376  and  _377
REMARK  154  A    between atoms: _377  and  _378
REMARK  155  A    between atoms: _378  and  _379
REMARK  156  A    between atoms: _383  and  _385
REMARK  157  A    between atoms: _385  and  _386
REMARK  158  A    between atoms: _385  and  _388
REMARK  159  A    between atoms: _388  and  _389
REMARK  160  A    between atoms: _389  and  _390
REMARK  161  A    between atoms: _392  and  _394
REMARK  162  A    between atoms: _394  and  _395
REMARK  163  A    between atoms: _394  and  _397
REMARK  164  A    between atoms: _397  and  _398
REMARK  165  A    between atoms: _401  and  _403
REMARK  166  A    between atoms: _403  and  _404
REMARK  167  A    between atoms: _406  and  _408
REMARK  168  A    between atoms: _408  and  _409
REMARK  169  A    between atoms: _411  and  _413
REMARK  170  A    between atoms: _413  and  _414
REMARK  171  A    between atoms: _413  and  _416
REMARK  172  A    between atoms: _416  and  _417
REMARK  173  A    between atoms: _420  and  _422
REMARK  174  A    between atoms: _422  and  _423
REMARK  175  A    between atoms: _425  and  _427
REMARK  176  A    between atoms: _427  and  _428
REMARK  177  A    between atoms: _430  and  _432
REMARK  178  A    between atoms: _432  and  _433
REMARK  179  A    between atoms: _432  and  _435
REMARK  180  A    between atoms: _435  and  _436
REMARK  181  A    between atoms: _442  and  _444
REMARK  182  A    between atoms: _444  and  _445
REMARK  183  A    between atoms: _444  and  _447
REMARK  184  A    between atoms: _447  and  _448
REMARK  185  A    between atoms: _451  and  _453
REMARK  186  A    between atoms: _453  and  _454
REMARK  187  A    between atoms: _453  and  _456
REMARK  188  A    between atoms: _459  and  _461
REMARK  189  A    between atoms: _461  and  _462
REMARK  190  A    between atoms: _461  and  _464
REMARK  191  A    between atoms: _464  and  _465
REMARK  192  A    between atoms: _465  and  _466
REMARK  193  A    between atoms: _471  and  _473
REMARK  194  A    between atoms: _473  and  _474
REMARK  195  A    between atoms: _473  and  _476
REMARK  196  A    between atoms: _476  and  _477
REMARK  197  A    between atoms: _481  and  _482
REMARK  198  A    between atoms: _487  and  _489
REMARK  199  A    between atoms: _489  and  _490
REMARK  200  A    between atoms: _489  and  _492
REMARK  201  A    between atoms: _492  and  _493
REMARK  202  A    between atoms: _497  and  _498
REMARK  203  A    between atoms: _503  and  _505
REMARK  204  A    between atoms: _505  and  _506
REMARK  205  A    between atoms: _509  and  _511
REMARK  206  A    between atoms: _511  and  _512
REMARK  207  A    between atoms: _511  and  _514
REMARK  208  A    between atoms: _514  and  _515
REMARK  209  A    between atoms: _520  and  _522
REMARK  210  A    between atoms: _522  and  _523
REMARK  211  A    between atoms: _522  and  _525
REMARK  212  A    between atoms: _525  and  _526
REMARK  213  A    between atoms: _529  and  _531
REMARK  214  A    between atoms: _531  and  _532
REMARK  215  A    between atoms: _531  and  _534
REMARK  216  A    between atoms: _534  and  _535
REMARK  217  A    between atoms: _538  and  _540
REMARK  218  A    between atoms: _540  and  _541
REMARK  219  A    between atoms: _543  and  _545
REMARK  220  A    between atoms: _545  and  _546
REMARK  221  A    between atoms: _545  and  _548
REMARK  222  A    between atoms: _548  and  _549
REMARK  223  A    between atoms: _549  and  _550
REMARK  224  A    between atoms: _550  and  _551
REMARK  225  A    between atoms: _560  and  _562
REMARK  226  A    between atoms: _562  and  _563
REMARK  227  A    between atoms: _562  and  _565
REMARK  228  A    between atoms: _565  and  _566
REMARK                            x       y       z     vdW  Elec       q    Type
REMARK                         _______ _______ _______ _____ _____    ______ ____
ROOT
ATOM      1  O   HOH     1      12.447  16.161  11.925  0.00  0.00    +0.000 OA
ENDROOT
TORSDOF 0
REMARK  Name = ../refined-set-2016/2aoe/2aoe_pocket.pdb
REMARK  228 active torsions:
REMARK  status: ('A' for Active; 'I' for Inactive)
REMARK    1  A    between atoms: _1  and  _3
REMARK    2  A    between atoms: _3  and  _4
REMARK    3  A    between atoms: _3  and  _6
REMARK    4  A    between atoms: _6  and  _7
REMARK    5  A    between atoms: _7  and  _8
REMARK    6  A    between atoms: _8  and  _9
REMARK    7  A    between atoms: _18  and  _20
REMARK    8  A    between atoms: _20  and  _21
REMARK    9  A    between atoms: _20  and  _23
REMARK   10  A    between atoms: _23  and  _24
REMARK   11  A    between atoms: _27  and  _29
REMARK   12  A    between atoms: _29  and  _30
REMARK   13  A    between atoms: _29  and  _32
REMARK   14  A    between atoms: _32  and  _33
REMARK   15  A    between atoms: _36  and  _38
REMARK   16  A    between atoms: _38  and  _39
REMARK   17  A    between atoms: _38  and  _41
REMARK   18  A    between atoms: _41  and  _42
REMARK   19  A    between atoms: _45  and  _47
REMARK   20  A    between atoms: _47  and  _48
REMARK   21  A    between atoms: _50  and  _52
REMARK   22  A    between atoms: _52  and  _53
REMARK   23  A    between atoms: _56  and  _58
REMARK   24  A    between atoms: _58  and  _59
REMARK   25  A    between atoms: _58  and  _61
REMARK   26  A    between atoms: _61  and  _62
REMARK   27  A    between atoms: _65  and  _67
REMARK   28  A    between atoms: _67  and  _68
REMARK   29  A    between atoms: _67  and  _70
REMARK   30  A    between atoms: _70  and  _71
REMARK   31  A    between atoms: _74  and  _76
REMARK   32  A    between atoms: _76  and  _77
REMARK   33  A    between atoms: _76  and  _79
REMARK   34  A    between atoms: _79  and  _80
REMARK   35  A    between atoms: _83  and  _85
REMARK   36  A    between atoms: _85  and  _86
REMARK   37  A    between atoms: _85  and  _88
REMARK   38  A    between atoms: _91  and  _93
REMARK   39  A    between atoms: _93  and  _94
REMARK   40  A    between atoms: _93  and  _96
REMARK   41  A    between atoms: _97  and  _98
REMARK   42  A    between atoms: _98  and  _99
REMARK   43  A    between atoms: _99  and  _100
REMARK   44  A    between atoms: _104  and  _106
REMARK   45  A    between atoms: _106  and  _107
REMARK   46  A    between atoms: _106  and  _109
REMARK   47  A    between atoms: _109  and  _110
REMARK   48  A    between atoms: _110  and  _111
REMARK   49  A    between atoms: _113  and  _115
REMARK   50  A    between atoms: _115  and  _116
REMARK   51  A    between atoms: _115  and  _118
REMARK   52  A    between atoms: _118  and  _119
REMARK   53  A    between atoms: _122  and  _124
REMARK   54  A    between atoms: _124  and  _125
REMARK   55  A    between atoms: _127  and  _129
REMARK   56  A    between atoms: _129  and  _130
REMARK   57  A    between atoms: _132  and  _134
REMARK   58  A    between atoms: _134  and  _135
REMARK   59  A    between atoms: _134  and  _137
REMARK   60  A    between atoms: _137  and  _138
REMARK   61  A    between atoms: _141  and  _143
REMARK   62  A    between atoms: _143  and  _144
REMARK   63  A    between atoms: _146  and  _148
REMARK   64  A    between atoms: _148  and  _149
REMARK   65  A    between atoms: _151  and  _153
REMARK   66  A    between atoms: _153  and  _154
REMARK   67  A    between atoms: _153  and  _156
REMARK   68  A    between atoms: _156  and  _157
REMARK   69  A    between atoms: _163  and  _165
REMARK   70  A    between atoms: _165  and  _166
REMARK   71  A    between atoms: _165  and  _168
REMARK   72  A    between atoms: _168  and  _169
REMARK   73  A    between atoms: _172  and  _174
REMARK   74  A    between atoms: _174  and  _175
REMARK   75  A    between atoms: _174  and  _177
REMARK   76  A    between atoms: _180  and  _182
REMARK   77  A    between atoms: _182  and  _183
REMARK   78  A    between atoms: _182  and  _185
REMARK   79  A    between atoms: _185  and  _186
REMARK   80  A    between atoms: _189  and  _191
REMARK   81  A    between atoms: _191  and  _192
REMARK   82  A    between atoms: _191  and  _194
REMARK   83  A    between atoms: _194  and  _195
REMARK   84  A    between atoms: _199  and  _200
REMARK   85  A    between atoms: _205  and  _207
REMARK   86  A    between atoms: _207  and  _208
REMARK   87  A    between atoms: _211  and  _213
REMARK   88  A    between atoms: _213  and  _214
REMARK   89  A    between atoms: _213  and  _216
REMARK   90  A    between atoms: _216  and  _217
REMARK   91  A    between atoms: _222  and  _224
REMARK   92  A    between atoms: _224  and  _225
REMARK   93  A    between atoms: _224  and  _227
REMARK   94  A    between atoms: _227  and  _228
REMARK   95  A    between atoms: _231  and  _233
REMARK   96  A    between atoms: _233  and  _234
REMARK   97  A    between atoms: _233  and  _236
REMARK   98  A    between atoms: _236  and  _237
REMARK   99  A    between atoms: _240  and  _242
REMARK  100  A    between atoms: _242  and  _243
REMARK  101  A    between atoms: _245  and  _247
REMARK  102  A    between atoms: _247  and  _248
REMARK  103  A    between atoms: _247  and  _250
REMARK  104  A    between atoms: _250  and  _251
REMARK  105  A    between atoms: _251  and  _252
REMARK  106  A    between atoms: _252  and  _253
REMARK  107  A    between atoms: _262  and  _264
REMARK  108  A    between atoms: _264  and  _265
REMARK  109  A    between atoms: _264  and  _267
REMARK  110  A    between atoms: _267  and  _268
REMARK  111  A    between atoms: _273  and  _275
REMARK  112  A    between atoms: _275  and  _276
REMARK  113  A    between atoms: _275  and  _278
REMARK  114  A    between atoms: _278  and  _279
REMARK  115  A    between atoms: _279  and  _280
REMARK  116  A    between atoms: _280  and  _281
REMARK  117  A    between atoms: _290  and  _292
REMARK  118  A    between atoms: _292  and  _293
REMARK  119  A    between atoms: _292  and  _295
REMARK  120  A    between atoms: _295  and  _296
REMARK  121  A    between atoms: _299  and  _301
REMARK  122  A    between atoms: _301  and  _302
REMARK  123  A    between atoms: _301  and  _304
REMARK  124  A    between atoms: _304  and  _305
REMARK  125  A    between atoms: _308  and  _310
REMARK  126  A    between atoms: _310  and  _311
REMARK  127  A    between atoms: _310  and  _313
REMARK  128  A    between atoms: _313  and  _314
REMARK  129  A    between atoms: _317  and  _319
REMARK  130  A    between atoms: _319  and  _320
REMARK  131  A    between atoms: _322  and  _324
REMARK  132  A    between atoms: _324  and  _325
REMARK  133  A    between atoms: _328  and  _330
REMARK  134  A    between atoms: _330  and  _331
REMARK  135  A    between atoms: _330  and  _333
REMARK  136  A    between atoms: _333  and  _334
REMARK  137  A    between atoms: _337  and  _339
REMARK  138  A    between atoms: _339  and  _340
REMARK  139  A    between atoms: _339  and  _342
REMARK  140  A    between atoms: _342  and  _343
REMARK  141  A    between atoms: _346  and  _348
REMARK  142  A    between atoms: _348  and  _349
REMARK  143  A    between atoms: _348  and  _351
REMARK  144  A    between atoms: _351  and  _352
REMARK  145  A    between atoms: _355  and  _357
REMARK  146  A    between atoms: _357  and  _358
REMARK  147  A    between atoms: _357  and  _360
REMARK  148  A    between atoms: _364  and  _365
REMARK  149  A    between atoms: _370  and  _372
REMARK  150  A    between atoms: _372  and  _373
REMARK  151  A    between atoms: _372  and  _375
REMARK  152  A    between atoms: _375  and  _376
REMARK  153  A    between atoms: _376  and  _377
REMARK  154  A    between atoms: _377  and  _378
REMARK  155  A    between atoms: _378  and  _379
REMARK  156  A    between atoms: _383  and  _385
REMARK  157  A    between atoms: _385  and  _386
REMARK  158  A    between atoms: _385  and  _388
REMARK  159  A    between atoms: _388  and  _389
REMARK  160  A    between atoms: _389  and  _390
REMARK  161  A    between atoms: _392  and  _394
REMARK  162  A    between atoms: _394  and  _395
REMARK  163  A    between atoms: _394  and  _397
REMARK  164  A    between atoms: _397  and  _398
REMARK  165  A    between atoms: _401  and  _403
REMARK  166  A    between atoms: _403  and  _404
REMARK  167  A    between atoms: _406  and  _408
REMARK  168  A    between atoms: _408  and  _409
REMARK  169  A    between atoms: _411  and  _413
REMARK  170  A    between atoms: _413  and  _414
REMARK  171  A    between atoms: _413  and  _416
REMARK  172  A    between atoms: _416  and  _417
REMARK  173  A    between atoms: _420  and  _422
REMARK  174  A    between atoms: _422  and  _423
REMARK  175  A    between atoms: _425  and  _427
REMARK  176  A    between atoms: _427  and  _428
REMARK  177  A    between atoms: _430  and  _432
REMARK  178  A    between atoms: _432  and  _433
REMARK  179  A    between atoms: _432  and  _435
REMARK  180  A    between atoms: _435  and  _436
REMARK  181  A    between atoms: _442  and  _444
REMARK  182  A    between atoms: _444  and  _445
REMARK  183  A    between atoms: _444  and  _447
REMARK  184  A    between atoms: _447  and  _448
REMARK  185  A    between atoms: _451  and  _453
REMARK  186  A    between atoms: _453  and  _454
REMARK  187  A    between atoms: _453  and  _456
REMARK  188  A    between atoms: _459  and  _461
REMARK  189  A    between atoms: _461  and  _462
REMARK  190  A    between atoms: _461  and  _464
REMARK  191  A    between atoms: _464  and  _465
REMARK  192  A    between atoms: _465  and  _466
REMARK  193  A    between atoms: _471  and  _473
REMARK  194  A    between atoms: _473  and  _474
REMARK  195  A    between atoms: _473  and  _476
REMARK  196  A    between atoms: _476  and  _477
REMARK  197  A    between atoms: _481  and  _482
REMARK  198  A    between atoms: _487  and  _489
REMARK  199  A    between atoms: _489  and  _490
REMARK  200  A    between atoms: _489  and  _492
REMARK  201  A    between atoms: _492  and  _493
REMARK  202  A    between atoms: _497  and  _498
REMARK  203  A    between atoms: _503  and  _505
REMARK  204  A    between atoms: _505  and  _506
REMARK  205  A    between atoms: _509  and  _511
REMARK  206  A    between atoms: _511  and  _512
REMARK  207  A    between atoms: _511  and  _514
REMARK  208  A    between atoms: _514  and  _515
REMARK  209  A    between atoms: _520  and  _522
REMARK  210  A    between atoms: _522  and  _523
REMARK  211  A    between atoms: _522  and  _525
REMARK  212  A    between atoms: _525  and  _526
REMARK  213  A    between atoms: _529  and  _531
REMARK  214  A    between atoms: _531  and  _532
REMARK  215  A    between atoms: _531  and  _534
REMARK  216  A    between atoms: _534  and  _535
REMARK  217  A    between atoms: _538  and  _540
REMARK  218  A    between atoms: _540  and  _541
REMARK  219  A    between atoms: _543  and  _545
REMARK  220  A    between atoms: _545  and  _546
REMARK  221  A    between atoms: _545  and  _548
REMARK  222  A    between atoms: _548  and  _549
REMARK  223  A    between atoms: _549  and  _550
REMARK  224  A    between atoms: _550  and  _551
REMARK  225  A    between atoms: _560  and  _562
REMARK  226  A    between atoms: _562  and  _563
REMARK  227  A    between atoms: _562  and  _565
REMARK  228  A    between atoms: _565  and  _566
REMARK                            x       y       z     vdW  Elec       q    Type
REMARK                         _______ _______ _______ _____ _____    ______ ____
ROOT
ATOM      1  O   HOH     1      29.062  24.205  18.609  0.00  0.00    +0.000 OA
ENDROOT
TORSDOF 0
