REMARK  Name = ../refined-set-2016/4qgi/4qgi_pocket.pdb
REMARK  229 active torsions:
REMARK  status: ('A' for Active; 'I' for Inactive)
REMARK    1  A    between atoms: _1  and  _3
REMARK    2  A    between atoms: _3  and  _4
REMARK    3  A    between atoms: _3  and  _6
REMARK    4  A    between atoms: _6  and  _7
REMARK    5  A    between atoms: _7  and  _8
REMARK    6  A    between atoms: _8  and  _9
REMARK    7  A    between atoms: _18  and  _20
REMARK    8  A    between atoms: _20  and  _21
REMARK    9  A    between atoms: _20  and  _23
REMARK   10  A    between atoms: _23  and  _24
REMARK   11  A    between atoms: _27  and  _29
REMARK   12  A    between atoms: _29  and  _30
REMARK   13  A    between atoms: _29  and  _32
REMARK   14  A    between atoms: _32  and  _33
REMARK   15  A    between atoms: _36  and  _38
REMARK   16  A    between atoms: _38  and  _39
REMARK   17  A    between atoms: _38  and  _41
REMARK   18  A    between atoms: _41  and  _42
REMARK   19  A    between atoms: _45  and  _47
REMARK   20  A    between atoms: _47  and  _48
REMARK   21  A    between atoms: _47  and  _50
REMARK   22  A    between atoms: _50  and  _51
REMARK   23  A    between atoms: _54  and  _56
REMARK   24  A    between atoms: _56  and  _57
REMARK   25  A    between atoms: _59  and  _61
REMARK   26  A    between atoms: _61  and  _62
REMARK   27  A    between atoms: _65  and  _67
REMARK   28  A    between atoms: _67  and  _68
REMARK   29  A    between atoms: _67  and  _70
REMARK   30  A    between atoms: _70  and  _71
REMARK   31  A    between atoms: _74  and  _76
REMARK   32  A    between atoms: _76  and  _77
REMARK   33  A    between atoms: _76  and  _79
REMARK   34  A    between atoms: _79  and  _80
REMARK   35  A    between atoms: _83  and  _85
REMARK   36  A    between atoms: _85  and  _86
REMARK   37  A    between atoms: _85  and  _88
REMARK   38  A    between atoms: _88  and  _89
REMARK   39  A    between atoms: _92  and  _94
REMARK   40  A    between atoms: _94  and  _95
REMARK   41  A    between atoms: _94  and  _97
REMARK   42  A    between atoms: _100  and  _102
REMARK   43  A    between atoms: _102  and  _103
REMARK   44  A    between atoms: _102  and  _105
REMARK   45  A    between atoms: _105  and  _106
REMARK   46  A    between atoms: _106  and  _107
REMARK   47  A    between atoms: _107  and  _108
REMARK   48  A    between atoms: _108  and  _109
REMARK   49  A    between atoms: _113  and  _115
REMARK   50  A    between atoms: _115  and  _116
REMARK   51  A    between atoms: _115  and  _118
REMARK   52  A    between atoms: _118  and  _119
REMARK   53  A    between atoms: _119  and  _120
REMARK   54  A    between atoms: _122  and  _124
REMARK   55  A    between atoms: _124  and  _125
REMARK   56  A    between atoms: _124  and  _127
REMARK   57  A    between atoms: _127  and  _128
REMARK   58  A    between atoms: _131  and  _133
REMARK   59  A    between atoms: _133  and  _134
REMARK   60  A    between atoms: _133  and  _136
REMARK   61  A    between atoms: _136  and  _137
REMARK   62  A    between atoms: _140  and  _142
REMARK   63  A    between atoms: _142  and  _143
REMARK   64  A    between atoms: _145  and  _147
REMARK   65  A    between atoms: _147  and  _148
REMARK   66  A    between atoms: _147  and  _150
REMARK   67  A    between atoms: _150  and  _151
REMARK   68  A    between atoms: _154  and  _156
REMARK   69  A    between atoms: _156  and  _157
REMARK   70  A    between atoms: _159  and  _161
REMARK   71  A    between atoms: _161  and  _162
REMARK   72  A    between atoms: _164  and  _166
REMARK   73  A    between atoms: _166  and  _167
REMARK   74  A    between atoms: _166  and  _169
REMARK   75  A    between atoms: _169  and  _170
REMARK   76  A    between atoms: _176  and  _178
REMARK   77  A    between atoms: _178  and  _179
REMARK   78  A    between atoms: _178  and  _181
REMARK   79  A    between atoms: _181  and  _182
REMARK   80  A    between atoms: _185  and  _187
REMARK   81  A    between atoms: _187  and  _188
REMARK   82  A    between atoms: _187  and  _190
REMARK   83  A    between atoms: _193  and  _195
REMARK   84  A    between atoms: _195  and  _196
REMARK   85  A    between atoms: _195  and  _198
REMARK   86  A    between atoms: _198  and  _199
REMARK   87  A    between atoms: _203  and  _204
REMARK   88  A    between atoms: _209  and  _211
REMARK   89  A    between atoms: _211  and  _212
REMARK   90  A    between atoms: _211  and  _214
REMARK   91  A    between atoms: _214  and  _215
REMARK   92  A    between atoms: _219  and  _220
REMARK   93  A    between atoms: _225  and  _227
REMARK   94  A    between atoms: _227  and  _228
REMARK   95  A    between atoms: _227  and  _230
REMARK   96  A    between atoms: _233  and  _235
REMARK   97  A    between atoms: _235  and  _236
REMARK   98  A    between atoms: _235  and  _238
REMARK   99  A    between atoms: _238  and  _239
REMARK  100  A    between atoms: _244  and  _246
REMARK  101  A    between atoms: _246  and  _247
REMARK  102  A    between atoms: _246  and  _249
REMARK  103  A    between atoms: _249  and  _250
REMARK  104  A    between atoms: _253  and  _255
REMARK  105  A    between atoms: _255  and  _256
REMARK  106  A    between atoms: _255  and  _258
REMARK  107  A    between atoms: _258  and  _259
REMARK  108  A    between atoms: _262  and  _264
REMARK  109  A    between atoms: _264  and  _265
REMARK  110  A    between atoms: _267  and  _269
REMARK  111  A    between atoms: _269  and  _270
REMARK  112  A    between atoms: _269  and  _272
REMARK  113  A    between atoms: _272  and  _273
REMARK  114  A    between atoms: _273  and  _274
REMARK  115  A    between atoms: _274  and  _275
REMARK  116  A    between atoms: _284  and  _286
REMARK  117  A    between atoms: _286  and  _287
REMARK  118  A    between atoms: _286  and  _289
REMARK  119  A    between atoms: _289  and  _290
REMARK  120  A    between atoms: _295  and  _297
REMARK  121  A    between atoms: _297  and  _298
REMARK  122  A    between atoms: _297  and  _300
REMARK  123  A    between atoms: _300  and  _301
REMARK  124  A    between atoms: _301  and  _302
REMARK  125  A    between atoms: _302  and  _303
REMARK  126  A    between atoms: _312  and  _314
REMARK  127  A    between atoms: _314  and  _315
REMARK  128  A    between atoms: _314  and  _317
REMARK  129  A    between atoms: _317  and  _318
REMARK  130  A    between atoms: _321  and  _323
REMARK  131  A    between atoms: _323  and  _324
REMARK  132  A    between atoms: _323  and  _326
REMARK  133  A    between atoms: _326  and  _327
REMARK  134  A    between atoms: _330  and  _332
REMARK  135  A    between atoms: _332  and  _333
REMARK  136  A    between atoms: _332  and  _335
REMARK  137  A    between atoms: _335  and  _336
REMARK  138  A    between atoms: _339  and  _341
REMARK  139  A    between atoms: _341  and  _342
REMARK  140  A    between atoms: _341  and  _344
REMARK  141  A    between atoms: _344  and  _345
REMARK  142  A    between atoms: _348  and  _350
REMARK  143  A    between atoms: _350  and  _351
REMARK  144  A    between atoms: _353  and  _355
REMARK  145  A    between atoms: _355  and  _356
REMARK  146  A    between atoms: _359  and  _361
REMARK  147  A    between atoms: _361  and  _362
REMARK  148  A    between atoms: _361  and  _364
REMARK  149  A    between atoms: _364  and  _365
REMARK  150  A    between atoms: _368  and  _370
REMARK  151  A    between atoms: _370  and  _371
REMARK  152  A    between atoms: _370  and  _373
REMARK  153  A    between atoms: _373  and  _374
REMARK  154  A    between atoms: _377  and  _379
REMARK  155  A    between atoms: _379  and  _380
REMARK  156  A    between atoms: _379  and  _382
REMARK  157  A    between atoms: _382  and  _383
REMARK  158  A    between atoms: _386  and  _388
REMARK  159  A    between atoms: _388  and  _389
REMARK  160  A    between atoms: _388  and  _391
REMARK  161  A    between atoms: _394  and  _396
REMARK  162  A    between atoms: _396  and  _397
REMARK  163  A    between atoms: _396  and  _399
REMARK  164  A    between atoms: _399  and  _400
REMARK  165  A    between atoms: _403  and  _405
REMARK  166  A    between atoms: _405  and  _406
REMARK  167  A    between atoms: _405  and  _408
REMARK  168  A    between atoms: _408  and  _409
REMARK  169  A    between atoms: _409  and  _410
REMARK  170  A    between atoms: _410  and  _411
REMARK  171  A    between atoms: _411  and  _412
REMARK  172  A    between atoms: _416  and  _418
REMARK  173  A    between atoms: _418  and  _419
REMARK  174  A    between atoms: _418  and  _421
REMARK  175  A    between atoms: _421  and  _422
REMARK  176  A    between atoms: _425  and  _427
REMARK  177  A    between atoms: _427  and  _428
REMARK  178  A    between atoms: _427  and  _430
REMARK  179  A    between atoms: _430  and  _431
REMARK  180  A    between atoms: _434  and  _436
REMARK  181  A    between atoms: _436  and  _437
REMARK  182  A    between atoms: _439  and  _441
REMARK  183  A    between atoms: _441  and  _442
REMARK  184  A    between atoms: _441  and  _444
REMARK  185  A    between atoms: _444  and  _445
REMARK  186  A    between atoms: _448  and  _450
REMARK  187  A    between atoms: _450  and  _451
REMARK  188  A    between atoms: _453  and  _455
REMARK  189  A    between atoms: _455  and  _456
REMARK  190  A    between atoms: _458  and  _460
REMARK  191  A    between atoms: _460  and  _461
REMARK  192  A    between atoms: _460  and  _463
REMARK  193  A    between atoms: _463  and  _464
REMARK  194  A    between atoms: _467  and  _469
REMARK  195  A    between atoms: _469  and  _470
REMARK  196  A    between atoms: _469  and  _472
REMARK  197  A    between atoms: _475  and  _477
REMARK  198  A    between atoms: _477  and  _478
REMARK  199  A    between atoms: _477  and  _480
REMARK  200  A    between atoms: _480  and  _481
REMARK  201  A    between atoms: _485  and  _486
REMARK  202  A    between atoms: _491  and  _493
REMARK  203  A    between atoms: _493  and  _494
REMARK  204  A    between atoms: _493  and  _496
REMARK  205  A    between atoms: _496  and  _497
REMARK  206  A    between atoms: _501  and  _502
REMARK  207  A    between atoms: _507  and  _509
REMARK  208  A    between atoms: _509  and  _510
REMARK  209  A    between atoms: _509  and  _512
REMARK  210  A    between atoms: _515  and  _517
REMARK  211  A    between atoms: _517  and  _518
REMARK  212  A    between atoms: _517  and  _520
REMARK  213  A    between atoms: _520  and  _521
REMARK  214  A    between atoms: _526  and  _528
REMARK  215  A    between atoms: _528  and  _529
REMARK  216  A    between atoms: _528  and  _531
REMARK  217  A    between atoms: _531  and  _532
REMARK  218  A    between atoms: _535  and  _537
REMARK  219  A    between atoms: _537  and  _538
REMARK  220  A    between atoms: _537  and  _540
REMARK  221  A    between atoms: _540  and  _541
REMARK  222  A    between atoms: _544  and  _546
REMARK  223  A    between atoms: _546  and  _547
REMARK  224  A    between atoms: _549  and  _551
REMARK  225  A    between atoms: _551  and  _552
REMARK  226  A    between atoms: _551  and  _554
REMARK  227  A    between atoms: _554  and  _555
REMARK  228  A    between atoms: _555  and  _556
REMARK  229  A    between atoms: _556  and  _557
REMARK                            x       y       z     vdW  Elec       q    Type
REMARK                         _______ _______ _______ _____ _____    ______ ____
ROOT
ATOM      1  NE  ARG A   1       3.814  -4.093  -5.644  0.00  0.00    -0.265 N 
ATOM      2  CZ  ARG A   1       2.881  -4.805  -5.016  0.00  0.00    +0.342 C 
ATOM      3  NH2 ARG A   1       3.236  -5.717  -4.123  0.00  0.00    -0.292 N 
ATOM      4 HH21 ARG A   1       2.508  -6.274  -3.631  0.00  0.00    +0.255 HD
ATOM      5 HH22 ARG A   1       4.242  -5.876  -3.914  0.00  0.00    +0.255 HD
ATOM      6  NH1 ARG A   1       1.595  -4.628  -5.295  0.00  0.00    -0.292 N 
ATOM      7 HH11 ARG A   1       0.873  -5.189  -4.799  0.00  0.00    +0.255 HD
ATOM      8 HH12 ARG A   1       1.309  -3.928  -6.009  0.00  0.00    +0.255 HD
ATOM      9  HE  ARG A   1       4.808  -4.282  -5.405  0.00  0.00    +0.259 HD
ENDROOT
BRANCH   1  10
ATOM     10  CD  ARG A   1       3.541  -3.066  -6.644  0.00  0.00    +0.174 C 
BRANCH  10  11
ATOM     11  CG  ARG A   1       3.755  -1.652  -6.103  0.00  0.00    +0.045 C 
BRANCH  11  12
ATOM     12  CB  ARG A   1       3.563  -0.593  -7.192  0.00  0.00    +0.029 C 
BRANCH  12  13
ATOM     13  CA  ARG A   1       4.042   0.813  -6.800  0.00  0.00    +0.133 C 
BRANCH  13  14
ATOM     14  N   ARG A   1       3.284   1.313  -5.660  0.00  0.00    -0.239 NA
ATOM     15  H   ARG A   1       2.496   0.751  -5.279  0.00  0.00    +0.142 HD
ENDBRANCH  13  14
BRANCH  13  16
ATOM     16  C   ARG A   1       3.925   1.768  -7.995  0.00  0.00    +0.224 C 
ATOM     17  O   ARG A   1       2.825   2.163  -8.361  0.00  0.00    -0.287 OA
ENDBRANCH  13  16
ENDBRANCH  12  13
ENDBRANCH  11  12
ENDBRANCH  10  11
ENDBRANCH   1  10
TORSDOF 6
REMARK  Name = ../refined-set-2016/4qgi/4qgi_pocket.pdb
REMARK  229 active torsions:
REMARK  status: ('A' for Active; 'I' for Inactive)
REMARK    1  A    between atoms: _1  and  _3
REMARK    2  A    between atoms: _3  and  _4
REMARK    3  A    between atoms: _3  and  _6
REMARK    4  A    between atoms: _6  and  _7
REMARK    5  A    between atoms: _7  and  _8
REMARK    6  A    between atoms: _8  and  _9
REMARK    7  A    between atoms: _18  and  _20
REMARK    8  A    between atoms: _20  and  _21
REMARK    9  A    between atoms: _20  and  _23
REMARK   10  A    between atoms: _23  and  _24
REMARK   11  A    between atoms: _27  and  _29
REMARK   12  A    between atoms: _29  and  _30
REMARK   13  A    between atoms: _29  and  _32
REMARK   14  A    between atoms: _32  and  _33
REMARK   15  A    between atoms: _36  and  _38
REMARK   16  A    between atoms: _38  and  _39
REMARK   17  A    between atoms: _38  and  _41
REMARK   18  A    between atoms: _41  and  _42
REMARK   19  A    between atoms: _45  and  _47
REMARK   20  A    between atoms: _47  and  _48
REMARK   21  A    between atoms: _47  and  _50
REMARK   22  A    between atoms: _50  and  _51
REMARK   23  A    between atoms: _54  and  _56
REMARK   24  A    between atoms: _56  and  _57
REMARK   25  A    between atoms: _59  and  _61
REMARK   26  A    between atoms: _61  and  _62
REMARK   27  A    between atoms: _65  and  _67
REMARK   28  A    between atoms: _67  and  _68
REMARK   29  A    between atoms: _67  and  _70
REMARK   30  A    between atoms: _70  and  _71
REMARK   31  A    between atoms: _74  and  _76
REMARK   32  A    between atoms: _76  and  _77
REMARK   33  A    between atoms: _76  and  _79
REMARK   34  A    between atoms: _79  and  _80
REMARK   35  A    between atoms: _83  and  _85
REMARK   36  A    between atoms: _85  and  _86
REMARK   37  A    between atoms: _85  and  _88
REMARK   38  A    between atoms: _88  and  _89
REMARK   39  A    between atoms: _92  and  _94
REMARK   40  A    between atoms: _94  and  _95
REMARK   41  A    between atoms: _94  and  _97
REMARK   42  A    between atoms: _100  and  _102
REMARK   43  A    between atoms: _102  and  _103
REMARK   44  A    between atoms: _102  and  _105
REMARK   45  A    between atoms: _105  and  _106
REMARK   46  A    between atoms: _106  and  _107
REMARK   47  A    between atoms: _107  and  _108
REMARK   48  A    between atoms: _108  and  _109
REMARK   49  A    between atoms: _113  and  _115
REMARK   50  A    between atoms: _115  and  _116
REMARK   51  A    between atoms: _115  and  _118
REMARK   52  A    between atoms: _118  and  _119
REMARK   53  A    between atoms: _119  and  _120
REMARK   54  A    between atoms: _122  and  _124
REMARK   55  A    between atoms: _124  and  _125
REMARK   56  A    between atoms: _124  and  _127
REMARK   57  A    between atoms: _127  and  _128
REMARK   58  A    between atoms: _131  and  _133
REMARK   59  A    between atoms: _133  and  _134
REMARK   60  A    between atoms: _133  and  _136
REMARK   61  A    between atoms: _136  and  _137
REMARK   62  A    between atoms: _140  and  _142
REMARK   63  A    between atoms: _142  and  _143
REMARK   64  A    between atoms: _145  and  _147
REMARK   65  A    between atoms: _147  and  _148
REMARK   66  A    between atoms: _147  and  _150
REMARK   67  A    between atoms: _150  and  _151
REMARK   68  A    between atoms: _154  and  _156
REMARK   69  A    between atoms: _156  and  _157
REMARK   70  A    between atoms: _159  and  _161
REMARK   71  A    between atoms: _161  and  _162
REMARK   72  A    between atoms: _164  and  _166
REMARK   73  A    between atoms: _166  and  _167
REMARK   74  A    between atoms: _166  and  _169
REMARK   75  A    between atoms: _169  and  _170
REMARK   76  A    between atoms: _176  and  _178
REMARK   77  A    between atoms: _178  and  _179
REMARK   78  A    between atoms: _178  and  _181
REMARK   79  A    between atoms: _181  and  _182
REMARK   80  A    between atoms: _185  and  _187
REMARK   81  A    between atoms: _187  and  _188
REMARK   82  A    between atoms: _187  and  _190
REMARK   83  A    between atoms: _193  and  _195
REMARK   84  A    between atoms: _195  and  _196
REMARK   85  A    between atoms: _195  and  _198
REMARK   86  A    between atoms: _198  and  _199
REMARK   87  A    between atoms: _203  and  _204
REMARK   88  A    between atoms: _209  and  _211
REMARK   89  A    between atoms: _211  and  _212
REMARK   90  A    between atoms: _211  and  _214
REMARK   91  A    between atoms: _214  and  _215
REMARK   92  A    between atoms: _219  and  _220
REMARK   93  A    between atoms: _225  and  _227
REMARK   94  A    between atoms: _227  and  _228
REMARK   95  A    between atoms: _227  and  _230
REMARK   96  A    between atoms: _233  and  _235
REMARK   97  A    between atoms: _235  and  _236
REMARK   98  A    between atoms: _235  and  _238
REMARK   99  A    between atoms: _238  and  _239
REMARK  100  A    between atoms: _244  and  _246
REMARK  101  A    between atoms: _246  and  _247
REMARK  102  A    between atoms: _246  and  _249
REMARK  103  A    between atoms: _249  and  _250
REMARK  104  A    between atoms: _253  and  _255
REMARK  105  A    between atoms: _255  and  _256
REMARK  106  A    between atoms: _255  and  _258
REMARK  107  A    between atoms: _258  and  _259
REMARK  108  A    between atoms: _262  and  _264
REMARK  109  A    between atoms: _264  and  _265
REMARK  110  A    between atoms: _267  and  _269
REMARK  111  A    between atoms: _269  and  _270
REMARK  112  A    between atoms: _269  and  _272
REMARK  113  A    between atoms: _272  and  _273
REMARK  114  A    between atoms: _273  and  _274
REMARK  115  A    between atoms: _274  and  _275
REMARK  116  A    between atoms: _284  and  _286
REMARK  117  A    between atoms: _286  and  _287
REMARK  118  A    between atoms: _286  and  _289
REMARK  119  A    between atoms: _289  and  _290
REMARK  120  A    between atoms: _295  and  _297
REMARK  121  A    between atoms: _297  and  _298
REMARK  122  A    between atoms: _297  and  _300
REMARK  123  A    between atoms: _300  and  _301
REMARK  124  A    between atoms: _301  and  _302
REMARK  125  A    between atoms: _302  and  _303
REMARK  126  A    between atoms: _312  and  _314
REMARK  127  A    between atoms: _314  and  _315
REMARK  128  A    between atoms: _314  and  _317
REMARK  129  A    between atoms: _317  and  _318
REMARK  130  A    between atoms: _321  and  _323
REMARK  131  A    between atoms: _323  and  _324
REMARK  132  A    between atoms: _323  and  _326
REMARK  133  A    between atoms: _326  and  _327
REMARK  134  A    between atoms: _330  and  _332
REMARK  135  A    between atoms: _332  and  _333
REMARK  136  A    between atoms: _332  and  _335
REMARK  137  A    between atoms: _335  and  _336
REMARK  138  A    between atoms: _339  and  _341
REMARK  139  A    between atoms: _341  and  _342
REMARK  140  A    between atoms: _341  and  _344
REMARK  141  A    between atoms: _344  and  _345
REMARK  142  A    between atoms: _348  and  _350
REMARK  143  A    between atoms: _350  and  _351
REMARK  144  A    between atoms: _353  and  _355
REMARK  145  A    between atoms: _355  and  _356
REMARK  146  A    between atoms: _359  and  _361
REMARK  147  A    between atoms: _361  and  _362
REMARK  148  A    between atoms: _361  and  _364
REMARK  149  A    between atoms: _364  and  _365
REMARK  150  A    between atoms: _368  and  _370
REMARK  151  A    between atoms: _370  and  _371
REMARK  152  A    between atoms: _370  and  _373
REMARK  153  A    between atoms: _373  and  _374
REMARK  154  A    between atoms: _377  and  _379
REMARK  155  A    between atoms: _379  and  _380
REMARK  156  A    between atoms: _379  and  _382
REMARK  157  A    between atoms: _382  and  _383
REMARK  158  A    between atoms: _386  and  _388
REMARK  159  A    between atoms: _388  and  _389
REMARK  160  A    between atoms: _388  and  _391
REMARK  161  A    between atoms: _394  and  _396
REMARK  162  A    between atoms: _396  and  _397
REMARK  163  A    between atoms: _396  and  _399
REMARK  164  A    between atoms: _399  and  _400
REMARK  165  A    between atoms: _403  and  _405
REMARK  166  A    between atoms: _405  and  _406
REMARK  167  A    between atoms: _405  and  _408
REMARK  168  A    between atoms: _408  and  _409
REMARK  169  A    between atoms: _409  and  _410
REMARK  170  A    between atoms: _410  and  _411
REMARK  171  A    between atoms: _411  and  _412
REMARK  172  A    between atoms: _416  and  _418
REMARK  173  A    between atoms: _418  and  _419
REMARK  174  A    between atoms: _418  and  _421
REMARK  175  A    between atoms: _421  and  _422
REMARK  176  A    between atoms: _425  and  _427
REMARK  177  A    between atoms: _427  and  _428
REMARK  178  A    between atoms: _427  and  _430
REMARK  179  A    between atoms: _430  and  _431
REMARK  180  A    between atoms: _434  and  _436
REMARK  181  A    between atoms: _436  and  _437
REMARK  182  A    between atoms: _439  and  _441
REMARK  183  A    between atoms: _441  and  _442
REMARK  184  A    between atoms: _441  and  _444
REMARK  185  A    between atoms: _444  and  _445
REMARK  186  A    between atoms: _448  and  _450
REMARK  187  A    between atoms: _450  and  _451
REMARK  188  A    between atoms: _453  and  _455
REMARK  189  A    between atoms: _455  and  _456
REMARK  190  A    between atoms: _458  and  _460
REMARK  191  A    between atoms: _460  and  _461
REMARK  192  A    between atoms: _460  and  _463
REMARK  193  A    between atoms: _463  and  _464
REMARK  194  A    between atoms: _467  and  _469
REMARK  195  A    between atoms: _469  and  _470
REMARK  196  A    between atoms: _469  and  _472
REMARK  197  A    between atoms: _475  and  _477
REMARK  198  A    between atoms: _477  and  _478
REMARK  199  A    between atoms: _477  and  _480
REMARK  200  A    between atoms: _480  and  _481
REMARK  201  A    between atoms: _485  and  _486
REMARK  202  A    between atoms: _491  and  _493
REMARK  203  A    between atoms: _493  and  _494
REMARK  204  A    between atoms: _493  and  _496
REMARK  205  A    between atoms: _496  and  _497
REMARK  206  A    between atoms: _501  and  _502
REMARK  207  A    between atoms: _507  and  _509
REMARK  208  A    between atoms: _509  and  _510
REMARK  209  A    between atoms: _509  and  _512
REMARK  210  A    between atoms: _515  and  _517
REMARK  211  A    between atoms: _517  and  _518
REMARK  212  A    between atoms: _517  and  _520
REMARK  213  A    between atoms: _520  and  _521
REMARK  214  A    between atoms: _526  and  _528
REMARK  215  A    between atoms: _528  and  _529
REMARK  216  A    between atoms: _528  and  _531
REMARK  217  A    between atoms: _531  and  _532
REMARK  218  A    between atoms: _535  and  _537
REMARK  219  A    between atoms: _537  and  _538
REMARK  220  A    between atoms: _537  and  _540
REMARK  221  A    between atoms: _540  and  _541
REMARK  222  A    between atoms: _544  and  _546
REMARK  223  A    between atoms: _546  and  _547
REMARK  224  A    between atoms: _549  and  _551
REMARK  225  A    between atoms: _551  and  _552
REMARK  226  A    between atoms: _551  and  _554
REMARK  227  A    between atoms: _554  and  _555
REMARK  228  A    between atoms: _555  and  _556
REMARK  229  A    between atoms: _556  and  _557
REMARK                            x       y       z     vdW  Elec       q    Type
REMARK                         _______ _______ _______ _____ _____    ______ ____
ROOT
ATOM      1  C   GLY A   5      16.431  -3.262 -11.430  0.00  0.00    +0.243 C 
ATOM      2  O   GLY A   5      17.100  -4.270 -11.213  0.00  0.00    -0.273 OA
ATOM      3  N   ALA A   6      15.705  -3.098 -12.535  0.00  0.00    -0.297 N 
ATOM      4  H   ALA A   6      15.140  -2.232 -12.644  0.00  0.00    +0.150 HD
ENDROOT
BRANCH   3   5
ATOM      5  CA  ALA A   6      15.679  -4.097 -13.596  0.00  0.00    +0.149 C 
ATOM      6  CB  ALA A   6      14.225  -4.389 -14.006  0.00  0.00    +0.031 C 
BRANCH   5   7
ATOM      7  C   ALA A   6      16.496  -3.661 -14.812  0.00  0.00    +0.241 C 
ATOM      8  N   ASP A   7      17.408  -4.524 -15.260  0.00  0.00    -0.297 N 
ATOM      9  H   ASP A   7      17.571  -5.407 -14.735  0.00  0.00    +0.150 HD
ATOM     10  O   ALA A   6      16.277  -2.575 -15.352  0.00  0.00    -0.273 OA
BRANCH   8  11
ATOM     11  CA  ASP A   7      18.184  -4.262 -16.470  0.00  0.00    +0.160 C 
BRANCH  11  12
ATOM     12  C   ASP A   7      17.265  -4.341 -17.690  0.00  0.00    +0.241 C 
ATOM     13  N   ASP A   8      16.329  -5.286 -17.649  0.00  0.00    -0.297 N 
ATOM     14  H   ASP A   8      16.167  -5.803 -16.761  0.00  0.00    +0.150 HD
ATOM     15  O   ASP A   7      17.422  -3.588 -18.652  0.00  0.00    -0.273 OA
BRANCH  13  16
ATOM     16  CA  ASP A   8      15.523  -5.614 -18.823  0.00  0.00    +0.160 C 
BRANCH  16  17
ATOM     17  C   ASP A   8      14.048  -5.272 -18.661  0.00  0.00    +0.241 C 
ATOM     18  O   ASP A   8      13.570  -5.022 -17.559  0.00  0.00    -0.273 OA
ATOM     19  N   THR A   9      13.328  -5.314 -19.773  0.00  0.00    -0.295 N 
ATOM     20  H   THR A   9      13.806  -5.472 -20.683  0.00  0.00    +0.150 HD
BRANCH  19  21
ATOM     21  CA  THR A   9      11.884  -5.144 -19.748  0.00  0.00    +0.176 C 
BRANCH  21  22
ATOM     22  C   THR A   9      11.239  -6.498 -19.981  0.00  0.00    +0.243 C 
ATOM     23  N   VAL A  10      10.396  -6.925 -19.037  0.00  0.00    -0.298 N 
ATOM     24  H   VAL A  10      10.155  -6.290 -18.249  0.00  0.00    +0.150 HD
ATOM     25  O   THR A   9      11.517  -7.151 -20.989  0.00  0.00    -0.273 OA
BRANCH  23  26
ATOM     26  CA  VAL A  10       9.801  -8.264 -19.081  0.00  0.00    +0.137 C 
BRANCH  26  27
ATOM     27  CB  VAL A  10      10.384  -9.171 -17.986  0.00  0.00    +0.026 C 
ATOM     28  CG2 VAL A  10      11.910  -9.103 -18.003  0.00  0.00    +0.002 C 
ATOM     29  CG1 VAL A  10       9.899 -10.614 -18.183  0.00  0.00    +0.002 C 
ENDBRANCH  26  27
BRANCH  26  30
ATOM     30  C   VAL A  10       8.288  -8.200 -18.910  0.00  0.00    +0.227 C 
ATOM     31  O   VAL A  10       7.798  -7.629 -17.922  0.00  0.00    -0.286 OA
ENDBRANCH  26  30
ENDBRANCH  23  26
ENDBRANCH  21  22
BRANCH  21  32
ATOM     32  CB  THR A   9      11.427  -4.127 -20.815  0.00  0.00    +0.137 C 
ATOM     33  CG2 THR A   9       9.911  -4.049 -20.887  0.00  0.00    +0.034 C 
BRANCH  32  34
ATOM     34  OG1 THR A   9      11.979  -2.835 -20.501  0.00  0.00    -0.382 OA
ATOM     35  HG1 THR A   9      12.967  -2.892 -20.496  0.00  0.00    +0.210 HD
ENDBRANCH  32  34
ENDBRANCH  21  32
ENDBRANCH  19  21
ENDBRANCH  16  17
BRANCH  16  36
ATOM     36  CB  ASP A   8      15.645  -7.105 -19.152  0.00  0.00    +0.143 C 
BRANCH  36  37
ATOM     37  CG  ASP A   8      17.093  -7.571 -19.280  0.00  0.00    +0.367 C 
ATOM     38  OD2 ASP A   8      17.414  -8.648 -18.746  0.00  0.00    -0.246 OA
ATOM     39  OD1 ASP A   8      17.907  -6.882 -19.924  0.00  0.00    -0.246 OA
ENDBRANCH  36  37
ENDBRANCH  16  36
ENDBRANCH  13  16
ENDBRANCH  11  12
BRANCH  11  40
ATOM     40  CB  ASP A   7      19.311  -5.287 -16.672  0.00  0.00    +0.143 C 
BRANCH  40  41
ATOM     41  CG  ASP A   7      20.370  -5.249 -15.595  0.00  0.00    +0.367 C 
ATOM     42  OD2 ASP A   7      20.412  -4.298 -14.791  0.00  0.00    -0.246 OA
ATOM     43  OD1 ASP A   7      21.158  -6.220 -15.549  0.00  0.00    -0.246 OA
ENDBRANCH  40  41
ENDBRANCH  11  40
ENDBRANCH   8  11
ENDBRANCH   5   7
ENDBRANCH   3   5
BRANCH   1  44
ATOM     44  CA  GLY A   5      16.340  -2.161 -10.383  0.00  0.00    +0.176 C 
BRANCH  44  46
ATOM     45  C   THR A   4      15.972  -0.029 -11.491  0.00  0.00    +0.243 C 
ATOM     46  N   GLY A   5      15.500  -1.037 -10.770  0.00  0.00    -0.295 N 
ATOM     47  H   GLY A   5      14.503  -1.024 -10.473  0.00  0.00    +0.150 HD
ATOM     48  O   THR A   4      17.143   0.024 -11.865  0.00  0.00    -0.273 OA
BRANCH  45  49
ATOM     49  CA  THR A   4      14.966   1.075 -11.863  0.00  0.00    +0.176 C 
BRANCH  49  51
ATOM     50  C   ASP A   3      13.072  -0.279 -12.555  0.00  0.00    +0.241 C 
ATOM     51  N   THR A   4      13.583   0.626 -11.723  0.00  0.00    -0.295 N 
ATOM     52  H   THR A   4      12.990   1.018 -10.964  0.00  0.00    +0.150 HD
ATOM     53  O   ASP A   3      13.761  -0.884 -13.378  0.00  0.00    -0.273 OA
BRANCH  50  54
ATOM     54  CA  ASP A   3      11.583  -0.597 -12.401  0.00  0.00    +0.160 C 
BRANCH  54  57
ATOM     55  C   LEU A   2       9.712   0.910 -12.738  0.00  0.00    +0.241 C 
ATOM     56  O   LEU A   2       9.624   1.173 -11.544  0.00  0.00    -0.273 OA
ATOM     57  N   ASP A   3      10.722   0.222 -13.257  0.00  0.00    -0.297 N 
ATOM     58  H   ASP A   3      10.903   0.265 -14.280  0.00  0.00    +0.150 HD
BRANCH  55  59
ATOM     59  CA  LEU A   2       8.626   1.355 -13.708  0.00  0.00    +0.149 C 
BRANCH  59  61
ATOM     60  C   LEU A   1       7.260  -0.657 -13.744  0.00  0.00    +0.238 C 
ATOM     61  N   LEU A   2       7.410   0.615 -13.379  0.00  0.00    -0.297 N 
ATOM     62  H   LEU A   2       6.649   1.089 -12.851  0.00  0.00    +0.150 HD
ATOM     63  O   LEU A   1       8.079  -1.256 -14.429  0.00  0.00    -0.274 OA
BRANCH  60  64
ATOM     64  CA  LEU A   1       6.009  -1.359 -13.266  0.00  0.00    +0.145 C 
BRANCH  64  65
ATOM     65  N   LEU A   1       5.264  -1.954 -14.360  0.00  0.00    -0.238 NA
ATOM     66  H   LEU A   1       5.514  -2.916 -14.665  0.00  0.00    +0.142 HD
ENDBRANCH  64  65
BRANCH  64  67
ATOM     67  CB  LEU A   1       6.366  -2.441 -12.261  0.00  0.00    +0.026 C 
BRANCH  67  68
ATOM     68  CG  LEU A   1       7.092  -2.105 -10.969  0.00  0.00    +0.002 C 
ATOM     69  CD2 LEU A   1       6.212  -1.277 -10.056  0.00  0.00    +0.000 C 
ATOM     70  CD1 LEU A   1       7.446  -3.424 -10.290  0.00  0.00    +0.000 C 
ENDBRANCH  67  68
ENDBRANCH  64  67
ENDBRANCH  60  64
ENDBRANCH  59  61
BRANCH  59  71
ATOM     71  CB  LEU A   2       8.408   2.848 -13.618  0.00  0.00    +0.029 C 
BRANCH  71  72
ATOM     72  CG  LEU A   2       7.349   3.405 -14.560  0.00  0.00    +0.002 C 
ATOM     73  CD2 LEU A   2       7.211   4.893 -14.314  0.00  0.00    +0.000 C 
ATOM     74  CD1 LEU A   2       7.697   3.110 -15.991  0.00  0.00    +0.000 C 
ENDBRANCH  71  72
ENDBRANCH  59  71
ENDBRANCH  55  59
ENDBRANCH  54  57
BRANCH  54  75
ATOM     75  CB  ASP A   3      11.288  -2.070 -12.740  0.00  0.00    +0.143 C 
BRANCH  75  76
ATOM     76  CG  ASP A   3      11.899  -3.048 -11.746  0.00  0.00    +0.367 C 
ATOM     77  OD2 ASP A   3      12.670  -2.621 -10.861  0.00  0.00    -0.246 OA
ATOM     78  OD1 ASP A   3      11.579  -4.249 -11.850  0.00  0.00    -0.246 OA
ENDBRANCH  75  76
ENDBRANCH  54  75
ENDBRANCH  50  54
ENDBRANCH  49  51
BRANCH  49  79
ATOM     79  CB  THR A   4      15.230   2.341 -11.010  0.00  0.00    +0.137 C 
ATOM     80  CG2 THR A   4      14.295   3.499 -11.436  0.00  0.00    +0.034 C 
BRANCH  79  81
ATOM     81  OG1 THR A   4      15.023   2.044  -9.623  0.00  0.00    -0.382 OA
ATOM     82  HG1 THR A   4      15.644   1.325  -9.344  0.00  0.00    +0.210 HD
ENDBRANCH  79  81
ENDBRANCH  49  79
ENDBRANCH  45  49
ENDBRANCH  44  46
ENDBRANCH   1  44
TORSDOF 35
REMARK  Name = ../refined-set-2016/4qgi/4qgi_pocket.pdb
REMARK  229 active torsions:
REMARK  status: ('A' for Active; 'I' for Inactive)
REMARK    1  A    between atoms: _1  and  _3
REMARK    2  A    between atoms: _3  and  _4
REMARK    3  A    between atoms: _3  and  _6
REMARK    4  A    between atoms: _6  and  _7
REMARK    5  A    between atoms: _7  and  _8
REMARK    6  A    between atoms: _8  and  _9
REMARK    7  A    between atoms: _18  and  _20
REMARK    8  A    between atoms: _20  and  _21
REMARK    9  A    between atoms: _20  and  _23
REMARK   10  A    between atoms: _23  and  _24
REMARK   11  A    between atoms: _27  and  _29
REMARK   12  A    between atoms: _29  and  _30
REMARK   13  A    between atoms: _29  and  _32
REMARK   14  A    between atoms: _32  and  _33
REMARK   15  A    between atoms: _36  and  _38
REMARK   16  A    between atoms: _38  and  _39
REMARK   17  A    between atoms: _38  and  _41
REMARK   18  A    between atoms: _41  and  _42
REMARK   19  A    between atoms: _45  and  _47
REMARK   20  A    between atoms: _47  and  _48
REMARK   21  A    between atoms: _47  and  _50
REMARK   22  A    between atoms: _50  and  _51
REMARK   23  A    between atoms: _54  and  _56
REMARK   24  A    between atoms: _56  and  _57
REMARK   25  A    between atoms: _59  and  _61
REMARK   26  A    between atoms: _61  and  _62
REMARK   27  A    between atoms: _65  and  _67
REMARK   28  A    between atoms: _67  and  _68
REMARK   29  A    between atoms: _67  and  _70
REMARK   30  A    between atoms: _70  and  _71
REMARK   31  A    between atoms: _74  and  _76
REMARK   32  A    between atoms: _76  and  _77
REMARK   33  A    between atoms: _76  and  _79
REMARK   34  A    between atoms: _79  and  _80
REMARK   35  A    between atoms: _83  and  _85
REMARK   36  A    between atoms: _85  and  _86
REMARK   37  A    between atoms: _85  and  _88
REMARK   38  A    between atoms: _88  and  _89
REMARK   39  A    between atoms: _92  and  _94
REMARK   40  A    between atoms: _94  and  _95
REMARK   41  A    between atoms: _94  and  _97
REMARK   42  A    between atoms: _100  and  _102
REMARK   43  A    between atoms: _102  and  _103
REMARK   44  A    between atoms: _102  and  _105
REMARK   45  A    between atoms: _105  and  _106
REMARK   46  A    between atoms: _106  and  _107
REMARK   47  A    between atoms: _107  and  _108
REMARK   48  A    between atoms: _108  and  _109
REMARK   49  A    between atoms: _113  and  _115
REMARK   50  A    between atoms: _115  and  _116
REMARK   51  A    between atoms: _115  and  _118
REMARK   52  A    between atoms: _118  and  _119
REMARK   53  A    between atoms: _119  and  _120
REMARK   54  A    between atoms: _122  and  _124
REMARK   55  A    between atoms: _124  and  _125
REMARK   56  A    between atoms: _124  and  _127
REMARK   57  A    between atoms: _127  and  _128
REMARK   58  A    between atoms: _131  and  _133
REMARK   59  A    between atoms: _133  and  _134
REMARK   60  A    between atoms: _133  and  _136
REMARK   61  A    between atoms: _136  and  _137
REMARK   62  A    between atoms: _140  and  _142
REMARK   63  A    between atoms: _142  and  _143
REMARK   64  A    between atoms: _145  and  _147
REMARK   65  A    between atoms: _147  and  _148
REMARK   66  A    between atoms: _147  and  _150
REMARK   67  A    between atoms: _150  and  _151
REMARK   68  A    between atoms: _154  and  _156
REMARK   69  A    between atoms: _156  and  _157
REMARK   70  A    between atoms: _159  and  _161
REMARK   71  A    between atoms: _161  and  _162
REMARK   72  A    between atoms: _164  and  _166
REMARK   73  A    between atoms: _166  and  _167
REMARK   74  A    between atoms: _166  and  _169
REMARK   75  A    between atoms: _169  and  _170
REMARK   76  A    between atoms: _176  and  _178
REMARK   77  A    between atoms: _178  and  _179
REMARK   78  A    between atoms: _178  and  _181
REMARK   79  A    between atoms: _181  and  _182
REMARK   80  A    between atoms: _185  and  _187
REMARK   81  A    between atoms: _187  and  _188
REMARK   82  A    between atoms: _187  and  _190
REMARK   83  A    between atoms: _193  and  _195
REMARK   84  A    between atoms: _195  and  _196
REMARK   85  A    between atoms: _195  and  _198
REMARK   86  A    between atoms: _198  and  _199
REMARK   87  A    between atoms: _203  and  _204
REMARK   88  A    between atoms: _209  and  _211
REMARK   89  A    between atoms: _211  and  _212
REMARK   90  A    between atoms: _211  and  _214
REMARK   91  A    between atoms: _214  and  _215
REMARK   92  A    between atoms: _219  and  _220
REMARK   93  A    between atoms: _225  and  _227
REMARK   94  A    between atoms: _227  and  _228
REMARK   95  A    between atoms: _227  and  _230
REMARK   96  A    between atoms: _233  and  _235
REMARK   97  A    between atoms: _235  and  _236
REMARK   98  A    between atoms: _235  and  _238
REMARK   99  A    between atoms: _238  and  _239
REMARK  100  A    between atoms: _244  and  _246
REMARK  101  A    between atoms: _246  and  _247
REMARK  102  A    between atoms: _246  and  _249
REMARK  103  A    between atoms: _249  and  _250
REMARK  104  A    between atoms: _253  and  _255
REMARK  105  A    between atoms: _255  and  _256
REMARK  106  A    between atoms: _255  and  _258
REMARK  107  A    between atoms: _258  and  _259
REMARK  108  A    between atoms: _262  and  _264
REMARK  109  A    between atoms: _264  and  _265
REMARK  110  A    between atoms: _267  and  _269
REMARK  111  A    between atoms: _269  and  _270
REMARK  112  A    between atoms: _269  and  _272
REMARK  113  A    between atoms: _272  and  _273
REMARK  114  A    between atoms: _273  and  _274
REMARK  115  A    between atoms: _274  and  _275
REMARK  116  A    between atoms: _284  and  _286
REMARK  117  A    between atoms: _286  and  _287
REMARK  118  A    between atoms: _286  and  _289
REMARK  119  A    between atoms: _289  and  _290
REMARK  120  A    between atoms: _295  and  _297
REMARK  121  A    between atoms: _297  and  _298
REMARK  122  A    between atoms: _297  and  _300
REMARK  123  A    between atoms: _300  and  _301
REMARK  124  A    between atoms: _301  and  _302
REMARK  125  A    between atoms: _302  and  _303
REMARK  126  A    between atoms: _312  and  _314
REMARK  127  A    between atoms: _314  and  _315
REMARK  128  A    between atoms: _314  and  _317
REMARK  129  A    between atoms: _317  and  _318
REMARK  130  A    between atoms: _321  and  _323
REMARK  131  A    between atoms: _323  and  _324
REMARK  132  A    between atoms: _323  and  _326
REMARK  133  A    between atoms: _326  and  _327
REMARK  134  A    between atoms: _330  and  _332
REMARK  135  A    between atoms: _332  and  _333
REMARK  136  A    between atoms: _332  and  _335
REMARK  137  A    between atoms: _335  and  _336
REMARK  138  A    between atoms: _339  and  _341
REMARK  139  A    between atoms: _341  and  _342
REMARK  140  A    between atoms: _341  and  _344
REMARK  141  A    between atoms: _344  and  _345
REMARK  142  A    between atoms: _348  and  _350
REMARK  143  A    between atoms: _350  and  _351
REMARK  144  A    between atoms: _353  and  _355
REMARK  145  A    between atoms: _355  and  _356
REMARK  146  A    between atoms: _359  and  _361
REMARK  147  A    between atoms: _361  and  _362
REMARK  148  A    between atoms: _361  and  _364
REMARK  149  A    between atoms: _364  and  _365
REMARK  150  A    between atoms: _368  and  _370
REMARK  151  A    between atoms: _370  and  _371
REMARK  152  A    between atoms: _370  and  _373
REMARK  153  A    between atoms: _373  and  _374
REMARK  154  A    between atoms: _377  and  _379
REMARK  155  A    between atoms: _379  and  _380
REMARK  156  A    between atoms: _379  and  _382
REMARK  157  A    between atoms: _382  and  _383
REMARK  158  A    between atoms: _386  and  _388
REMARK  159  A    between atoms: _388  and  _389
REMARK  160  A    between atoms: _388  and  _391
REMARK  161  A    between atoms: _394  and  _396
REMARK  162  A    between atoms: _396  and  _397
REMARK  163  A    between atoms: _396  and  _399
REMARK  164  A    between atoms: _399  and  _400
REMARK  165  A    between atoms: _403  and  _405
REMARK  166  A    between atoms: _405  and  _406
REMARK  167  A    between atoms: _405  and  _408
REMARK  168  A    between atoms: _408  and  _409
REMARK  169  A    between atoms: _409  and  _410
REMARK  170  A    between atoms: _410  and  _411
REMARK  171  A    between atoms: _411  and  _412
REMARK  172  A    between atoms: _416  and  _418
REMARK  173  A    between atoms: _418  and  _419
REMARK  174  A    between atoms: _418  and  _421
REMARK  175  A    between atoms: _421  and  _422
REMARK  176  A    between atoms: _425  and  _427
REMARK  177  A    between atoms: _427  and  _428
REMARK  178  A    between atoms: _427  and  _430
REMARK  179  A    between atoms: _430  and  _431
REMARK  180  A    between atoms: _434  and  _436
REMARK  181  A    between atoms: _436  and  _437
REMARK  182  A    between atoms: _439  and  _441
REMARK  183  A    between atoms: _441  and  _442
REMARK  184  A    between atoms: _441  and  _444
REMARK  185  A    between atoms: _444  and  _445
REMARK  186  A    between atoms: _448  and  _450
REMARK  187  A    between atoms: _450  and  _451
REMARK  188  A    between atoms: _453  and  _455
REMARK  189  A    between atoms: _455  and  _456
REMARK  190  A    between atoms: _458  and  _460
REMARK  191  A    between atoms: _460  and  _461
REMARK  192  A    between atoms: _460  and  _463
REMARK  193  A    between atoms: _463  and  _464
REMARK  194  A    between atoms: _467  and  _469
REMARK  195  A    between atoms: _469  and  _470
REMARK  196  A    between atoms: _469  and  _472
REMARK  197  A    between atoms: _475  and  _477
REMARK  198  A    between atoms: _477  and  _478
REMARK  199  A    between atoms: _477  and  _480
REMARK  200  A    between atoms: _480  and  _481
REMARK  201  A    between atoms: _485  and  _486
REMARK  202  A    between atoms: _491  and  _493
REMARK  203  A    between atoms: _493  and  _494
REMARK  204  A    between atoms: _493  and  _496
REMARK  205  A    between atoms: _496  and  _497
REMARK  206  A    between atoms: _501  and  _502
REMARK  207  A    between atoms: _507  and  _509
REMARK  208  A    between atoms: _509  and  _510
REMARK  209  A    between atoms: _509  and  _512
REMARK  210  A    between atoms: _515  and  _517
REMARK  211  A    between atoms: _517  and  _518
REMARK  212  A    between atoms: _517  and  _520
REMARK  213  A    between atoms: _520  and  _521
REMARK  214  A    between atoms: _526  and  _528
REMARK  215  A    between atoms: _528  and  _529
REMARK  216  A    between atoms: _528  and  _531
REMARK  217  A    between atoms: _531  and  _532
REMARK  218  A    between atoms: _535  and  _537
REMARK  219  A    between atoms: _537  and  _538
REMARK  220  A    between atoms: _537  and  _540
REMARK  221  A    between atoms: _540  and  _541
REMARK  222  A    between atoms: _544  and  _546
REMARK  223  A    between atoms: _546  and  _547
REMARK  224  A    between atoms: _549  and  _551
REMARK  225  A    between atoms: _551  and  _552
REMARK  226  A    between atoms: _551  and  _554
REMARK  227  A    between atoms: _554  and  _555
REMARK  228  A    between atoms: _555  and  _556
REMARK  229  A    between atoms: _556  and  _557
REMARK                            x       y       z     vdW  Elec       q    Type
REMARK                         _______ _______ _______ _____ _____    ______ ____
ROOT
ATOM      1  CA  GLY A   5      16.347 -11.608 -10.281  0.00  0.00    +0.176 C 
ENDROOT
BRANCH   1   2
ATOM      2  C   GLY A   5      16.510 -12.339  -8.972  0.00  0.00    +0.243 C 
ATOM      3  N   ILE A   6      15.748 -11.914  -7.987  0.00  0.00    -0.297 N 
ATOM      4  H   ILE A   6      15.196 -11.042  -8.112  0.00  0.00    +0.150 HD
ATOM      5  O   GLY A   5      17.321 -13.251  -8.847  0.00  0.00    -0.273 OA
BRANCH   3   6
ATOM      6  CA  ILE A   6      15.660 -12.629  -6.738  0.00  0.00    +0.149 C 
BRANCH   6   7
ATOM      7  C   ILE A   6      14.955 -13.974  -7.004  0.00  0.00    +0.241 C 
ATOM      8  N   GLY A   7      15.477 -15.056  -6.426  0.00  0.00    -0.295 N 
ATOM      9  H   GLY A   7      16.403 -14.976  -5.959  0.00  0.00    +0.150 HD
ATOM     10  O   ILE A   6      13.983 -14.025  -7.766  0.00  0.00    -0.273 OA
BRANCH   8  11
ATOM     11  CA  GLY A   7      14.802 -16.344  -6.424  0.00  0.00    +0.176 C 
BRANCH  11  12
ATOM     12  C   GLY A   7      14.989 -17.327  -7.565  0.00  0.00    +0.243 C 
ATOM     13  O   GLY A   7      14.378 -18.389  -7.566  0.00  0.00    -0.273 OA
ATOM     14  N   GLY A   8      15.831 -17.009  -8.530  0.00  0.00    -0.295 N 
ATOM     15  H   GLY A   8      16.311 -16.086  -8.530  0.00  0.00    +0.150 HD
BRANCH  14  16
ATOM     16  CA  GLY A   8      16.077 -17.970  -9.595  0.00  0.00    +0.176 C 
BRANCH  16  17
ATOM     17  C   GLY A   8      15.731 -17.505 -10.995  0.00  0.00    +0.243 C 
ATOM     18  O   GLY A   8      15.517 -16.327 -11.209  0.00  0.00    -0.273 OA
ATOM     19  N   PHE A   9      15.741 -18.442 -11.944  0.00  0.00    -0.297 N 
ATOM     20  H   PHE A   9      15.848 -19.434 -11.651  0.00  0.00    +0.150 HD
BRANCH  19  21
ATOM     21  CA  PHE A   9      15.610 -18.157 -13.373  0.00  0.00    +0.153 C 
BRANCH  21  22
ATOM     22  C   PHE A   9      14.213 -18.370 -13.928  0.00  0.00    +0.241 C 
ATOM     23  O   PHE A   9      13.480 -19.232 -13.454  0.00  0.00    -0.273 OA
ATOM     24  N   ILE A  10      13.851 -17.598 -14.950  0.00  0.00    -0.298 N 
ATOM     25  H   ILE A  10      14.401 -16.743 -15.171  0.00  0.00    +0.150 HD
BRANCH  24  26
ATOM     26  CA  ILE A  10      12.690 -17.942 -15.761  0.00  0.00    +0.137 C 
BRANCH  26  27
ATOM     27  C   ILE A  10      13.139 -17.941 -17.217  0.00  0.00    +0.227 C 
ATOM     28  O   ILE A  10      14.094 -17.247 -17.588  0.00  0.00    -0.286 OA
ENDBRANCH  26  27
BRANCH  26  29
ATOM     29  CB  ILE A  10      11.498 -16.981 -15.573  0.00  0.00    +0.026 C 
ATOM     30  CG2 ILE A  10      10.983 -17.051 -14.153  0.00  0.00    +0.002 C 
BRANCH  29  31
ATOM     31  CG1 ILE A  10      11.873 -15.552 -15.943  0.00  0.00    +0.002 C 
ATOM     32  CD1 ILE A  10      10.671 -14.633 -16.052  0.00  0.00    +0.000 C 
ENDBRANCH  29  31
ENDBRANCH  26  29
ENDBRANCH  24  26
ENDBRANCH  21  22
BRANCH  21  33
ATOM     33  CB  PHE A   9      16.579 -19.026 -14.178  0.00  0.00    +0.055 C 
BRANCH  33  34
ATOM     34  CG  PHE A   9      18.032 -18.701 -13.960  0.00  0.00    -0.020 A 
ATOM     35  CD2 PHE A   9      18.693 -19.113 -12.808  0.00  0.00    -0.004 A 
ATOM     36  CE2 PHE A   9      20.039 -18.821 -12.610  0.00  0.00    -0.000 A 
ATOM     37  CZ  PHE A   9      20.744 -18.139 -13.580  0.00  0.00    -0.000 A 
ATOM     38  CE1 PHE A   9      20.103 -17.745 -14.746  0.00  0.00    -0.000 A 
ATOM     39  CD1 PHE A   9      18.753 -18.027 -14.932  0.00  0.00    -0.004 A 
ENDBRANCH  33  34
ENDBRANCH  21  33
ENDBRANCH  19  21
ENDBRANCH  16  17
ENDBRANCH  14  16
ENDBRANCH  11  12
ENDBRANCH   8  11
ENDBRANCH   6   7
BRANCH   6  40
ATOM     40  CB  ILE A   6      14.872 -11.811  -5.700  0.00  0.00    +0.027 C 
ATOM     41  CG2 ILE A   6      14.325 -12.697  -4.600  0.00  0.00    +0.002 C 
BRANCH  40  42
ATOM     42  CG1 ILE A   6      15.732 -10.675  -5.133  0.00  0.00    +0.002 C 
ATOM     43  CD1 ILE A   6      16.763 -11.124  -4.132  0.00  0.00    +0.000 C 
ENDBRANCH  40  42
ENDBRANCH   6  40
ENDBRANCH   3   6
ENDBRANCH   1   2
BRANCH   1  45
ATOM     44  C   THR A   4      16.967 -12.571 -12.442  0.00  0.00    +0.243 C 
ATOM     45  N   GLY A   5      16.570 -12.704 -11.189  0.00  0.00    -0.295 N 
ATOM     46  H   GLY A   5      16.407 -13.668 -10.833  0.00  0.00    +0.150 HD
ATOM     47  O   THR A   4      16.948 -11.514 -13.059  0.00  0.00    -0.273 OA
BRANCH  44  48
ATOM     48  CA  THR A   4      17.320 -13.875 -13.122  0.00  0.00    +0.176 C 
BRANCH  48  50
ATOM     49  C   ILE A   3      16.711 -14.528 -15.376  0.00  0.00    +0.241 C 
ATOM     50  N   THR A   4      17.381 -13.723 -14.560  0.00  0.00    -0.295 N 
ATOM     51  H   THR A   4      17.965 -12.963 -14.965  0.00  0.00    +0.150 HD
ATOM     52  O   ILE A   3      15.974 -15.442 -14.991  0.00  0.00    -0.273 OA
BRANCH  49  53
ATOM     53  CA  ILE A   3      16.915 -14.250 -16.852  0.00  0.00    +0.149 C 
BRANCH  53  55
ATOM     54  C   MET A   2      17.386 -15.926 -18.517  0.00  0.00    +0.241 C 
ATOM     55  N   ILE A   3      16.532 -15.396 -17.657  0.00  0.00    -0.297 N 
ATOM     56  H   ILE A   3      15.580 -15.803 -17.557  0.00  0.00    +0.150 HD
ATOM     57  O   MET A   2      18.507 -15.480 -18.705  0.00  0.00    -0.273 OA
BRANCH  54  58
ATOM     58  CA  MET A   2      16.893 -17.119 -19.294  0.00  0.00    +0.149 C 
BRANCH  58  60
ATOM     59  C   LYS A   1      16.263 -16.969 -21.615  0.00  0.00    +0.238 C 
ATOM     60  N   MET A   2      17.217 -16.917 -20.697  0.00  0.00    -0.297 N 
ATOM     61  H   MET A   2      18.200 -16.731 -20.981  0.00  0.00    +0.150 HD
ATOM     62  O   LYS A   1      15.102 -17.277 -21.343  0.00  0.00    -0.274 OA
BRANCH  59  63
ATOM     63  CA  LYS A   1      16.678 -16.634 -23.051  0.00  0.00    +0.145 C 
BRANCH  63  64
ATOM     64  N   LYS A   1      15.731 -17.207 -23.992  0.00  0.00    -0.238 NA
ATOM     65  H   LYS A   1      14.739 -17.351 -23.715  0.00  0.00    +0.142 HD
ENDBRANCH  63  64
BRANCH  63  66
ATOM     66  CB  LYS A   1      16.780 -15.118 -23.271  0.00  0.00    +0.026 C 
BRANCH  66  67
ATOM     67  CG  LYS A   1      17.885 -14.415 -22.506  0.00  0.00    -0.000 C 
BRANCH  67  68
ATOM     68  CD  LYS A   1      17.813 -12.897 -22.729  0.00  0.00    -0.024 C 
BRANCH  68  69
ATOM     69  CE  LYS A   1      18.952 -12.141 -22.047  0.00  0.00    -0.086 C 
BRANCH  69  70
ATOM     70  NZ  LYS A   1      18.822 -10.663 -22.213  0.00  0.00    +0.380 N 
ATOM     71  HZ1 LYS A   1      19.616 -10.191 -21.735  0.00  0.00    -0.089 HD
ATOM     72  HZ2 LYS A   1      17.925 -10.346 -21.794  0.00  0.00    -0.089 HD
ATOM     73  HZ3 LYS A   1      18.836 -10.427 -23.226  0.00  0.00    -0.089 HD
ENDBRANCH  69  70
ENDBRANCH  68  69
ENDBRANCH  67  68
ENDBRANCH  66  67
ENDBRANCH  63  66
ENDBRANCH  59  63
ENDBRANCH  58  60
BRANCH  58  74
ATOM     74  CB  MET A   2      17.503 -18.408 -18.741  0.00  0.00    +0.041 C 
BRANCH  74  75
ATOM     75  CG  MET A   2      16.987 -19.670 -19.409  0.00  0.00    +0.060 C 
BRANCH  75  76
ATOM     76  SD  MET A   2      17.601 -21.159 -18.603  0.00  0.00    -0.139 S 
ATOM     77  CE  MET A   2      16.725 -21.090 -17.047  0.00  0.00    +0.069 C 
ENDBRANCH  75  76
ENDBRANCH  74  75
ENDBRANCH  58  74
ENDBRANCH  54  58
ENDBRANCH  53  55
BRANCH  53  78
ATOM     78  CB  ILE A   3      16.125 -12.991 -17.221  0.00  0.00    +0.027 C 
ATOM     79  CG2 ILE A   3      16.464 -12.543 -18.643  0.00  0.00    +0.002 C 
BRANCH  78  80
ATOM     80  CG1 ILE A   3      14.627 -13.258 -17.060  0.00  0.00    +0.002 C 
ATOM     81  CD1 ILE A   3      13.758 -12.066 -17.344  0.00  0.00    +0.000 C 
ENDBRANCH  78  80
ENDBRANCH  53  78
ENDBRANCH  49  53
ENDBRANCH  48  50
BRANCH  48  82
ATOM     82  CB  THR A   4      18.659 -14.345 -12.539  0.00  0.00    +0.137 C 
ATOM     83  CG2 THR A   4      18.425 -15.172 -11.293  0.00  0.00    +0.034 C 
BRANCH  82  84
ATOM     84  OG1 THR A   4      19.351 -15.141 -13.498  0.00  0.00    -0.382 OA
ATOM     85  HG1 THR A   4      20.214 -15.441 -13.116  0.00  0.00    +0.210 HD
ENDBRANCH  82  84
ENDBRANCH  48  82
ENDBRANCH  44  48
ENDBRANCH   1  45
TORSDOF 38
REMARK  Name = ../refined-set-2016/4qgi/4qgi_pocket.pdb
REMARK  229 active torsions:
REMARK  status: ('A' for Active; 'I' for Inactive)
REMARK    1  A    between atoms: _1  and  _3
REMARK    2  A    between atoms: _3  and  _4
REMARK    3  A    between atoms: _3  and  _6
REMARK    4  A    between atoms: _6  and  _7
REMARK    5  A    between atoms: _7  and  _8
REMARK    6  A    between atoms: _8  and  _9
REMARK    7  A    between atoms: _18  and  _20
REMARK    8  A    between atoms: _20  and  _21
REMARK    9  A    between atoms: _20  and  _23
REMARK   10  A    between atoms: _23  and  _24
REMARK   11  A    between atoms: _27  and  _29
REMARK   12  A    between atoms: _29  and  _30
REMARK   13  A    between atoms: _29  and  _32
REMARK   14  A    between atoms: _32  and  _33
REMARK   15  A    between atoms: _36  and  _38
REMARK   16  A    between atoms: _38  and  _39
REMARK   17  A    between atoms: _38  and  _41
REMARK   18  A    between atoms: _41  and  _42
REMARK   19  A    between atoms: _45  and  _47
REMARK   20  A    between atoms: _47  and  _48
REMARK   21  A    between atoms: _47  and  _50
REMARK   22  A    between atoms: _50  and  _51
REMARK   23  A    between atoms: _54  and  _56
REMARK   24  A    between atoms: _56  and  _57
REMARK   25  A    between atoms: _59  and  _61
REMARK   26  A    between atoms: _61  and  _62
REMARK   27  A    between atoms: _65  and  _67
REMARK   28  A    between atoms: _67  and  _68
REMARK   29  A    between atoms: _67  and  _70
REMARK   30  A    between atoms: _70  and  _71
REMARK   31  A    between atoms: _74  and  _76
REMARK   32  A    between atoms: _76  and  _77
REMARK   33  A    between atoms: _76  and  _79
REMARK   34  A    between atoms: _79  and  _80
REMARK   35  A    between atoms: _83  and  _85
REMARK   36  A    between atoms: _85  and  _86
REMARK   37  A    between atoms: _85  and  _88
REMARK   38  A    between atoms: _88  and  _89
REMARK   39  A    between atoms: _92  and  _94
REMARK   40  A    between atoms: _94  and  _95
REMARK   41  A    between atoms: _94  and  _97
REMARK   42  A    between atoms: _100  and  _102
REMARK   43  A    between atoms: _102  and  _103
REMARK   44  A    between atoms: _102  and  _105
REMARK   45  A    between atoms: _105  and  _106
REMARK   46  A    between atoms: _106  and  _107
REMARK   47  A    between atoms: _107  and  _108
REMARK   48  A    between atoms: _108  and  _109
REMARK   49  A    between atoms: _113  and  _115
REMARK   50  A    between atoms: _115  and  _116
REMARK   51  A    between atoms: _115  and  _118
REMARK   52  A    between atoms: _118  and  _119
REMARK   53  A    between atoms: _119  and  _120
REMARK   54  A    between atoms: _122  and  _124
REMARK   55  A    between atoms: _124  and  _125
REMARK   56  A    between atoms: _124  and  _127
REMARK   57  A    between atoms: _127  and  _128
REMARK   58  A    between atoms: _131  and  _133
REMARK   59  A    between atoms: _133  and  _134
REMARK   60  A    between atoms: _133  and  _136
REMARK   61  A    between atoms: _136  and  _137
REMARK   62  A    between atoms: _140  and  _142
REMARK   63  A    between atoms: _142  and  _143
REMARK   64  A    between atoms: _145  and  _147
REMARK   65  A    between atoms: _147  and  _148
REMARK   66  A    between atoms: _147  and  _150
REMARK   67  A    between atoms: _150  and  _151
REMARK   68  A    between atoms: _154  and  _156
REMARK   69  A    between atoms: _156  and  _157
REMARK   70  A    between atoms: _159  and  _161
REMARK   71  A    between atoms: _161  and  _162
REMARK   72  A    between atoms: _164  and  _166
REMARK   73  A    between atoms: _166  and  _167
REMARK   74  A    between atoms: _166  and  _169
REMARK   75  A    between atoms: _169  and  _170
REMARK   76  A    between atoms: _176  and  _178
REMARK   77  A    between atoms: _178  and  _179
REMARK   78  A    between atoms: _178  and  _181
REMARK   79  A    between atoms: _181  and  _182
REMARK   80  A    between atoms: _185  and  _187
REMARK   81  A    between atoms: _187  and  _188
REMARK   82  A    between atoms: _187  and  _190
REMARK   83  A    between atoms: _193  and  _195
REMARK   84  A    between atoms: _195  and  _196
REMARK   85  A    between atoms: _195  and  _198
REMARK   86  A    between atoms: _198  and  _199
REMARK   87  A    between atoms: _203  and  _204
REMARK   88  A    between atoms: _209  and  _211
REMARK   89  A    between atoms: _211  and  _212
REMARK   90  A    between atoms: _211  and  _214
REMARK   91  A    between atoms: _214  and  _215
REMARK   92  A    between atoms: _219  and  _220
REMARK   93  A    between atoms: _225  and  _227
REMARK   94  A    between atoms: _227  and  _228
REMARK   95  A    between atoms: _227  and  _230
REMARK   96  A    between atoms: _233  and  _235
REMARK   97  A    between atoms: _235  and  _236
REMARK   98  A    between atoms: _235  and  _238
REMARK   99  A    between atoms: _238  and  _239
REMARK  100  A    between atoms: _244  and  _246
REMARK  101  A    between atoms: _246  and  _247
REMARK  102  A    between atoms: _246  and  _249
REMARK  103  A    between atoms: _249  and  _250
REMARK  104  A    between atoms: _253  and  _255
REMARK  105  A    between atoms: _255  and  _256
REMARK  106  A    between atoms: _255  and  _258
REMARK  107  A    between atoms: _258  and  _259
REMARK  108  A    between atoms: _262  and  _264
REMARK  109  A    between atoms: _264  and  _265
REMARK  110  A    between atoms: _267  and  _269
REMARK  111  A    between atoms: _269  and  _270
REMARK  112  A    between atoms: _269  and  _272
REMARK  113  A    between atoms: _272  and  _273
REMARK  114  A    between atoms: _273  and  _274
REMARK  115  A    between atoms: _274  and  _275
REMARK  116  A    between atoms: _284  and  _286
REMARK  117  A    between atoms: _286  and  _287
REMARK  118  A    between atoms: _286  and  _289
REMARK  119  A    between atoms: _289  and  _290
REMARK  120  A    between atoms: _295  and  _297
REMARK  121  A    between atoms: _297  and  _298
REMARK  122  A    between atoms: _297  and  _300
REMARK  123  A    between atoms: _300  and  _301
REMARK  124  A    between atoms: _301  and  _302
REMARK  125  A    between atoms: _302  and  _303
REMARK  126  A    between atoms: _312  and  _314
REMARK  127  A    between atoms: _314  and  _315
REMARK  128  A    between atoms: _314  and  _317
REMARK  129  A    between atoms: _317  and  _318
REMARK  130  A    between atoms: _321  and  _323
REMARK  131  A    between atoms: _323  and  _324
REMARK  132  A    between atoms: _323  and  _326
REMARK  133  A    between atoms: _326  and  _327
REMARK  134  A    between atoms: _330  and  _332
REMARK  135  A    between atoms: _332  and  _333
REMARK  136  A    between atoms: _332  and  _335
REMARK  137  A    between atoms: _335  and  _336
REMARK  138  A    between atoms: _339  and  _341
REMARK  139  A    between atoms: _341  and  _342
REMARK  140  A    between atoms: _341  and  _344
REMARK  141  A    between atoms: _344  and  _345
REMARK  142  A    between atoms: _348  and  _350
REMARK  143  A    between atoms: _350  and  _351
REMARK  144  A    between atoms: _353  and  _355
REMARK  145  A    between atoms: _355  and  _356
REMARK  146  A    between atoms: _359  and  _361
REMARK  147  A    between atoms: _361  and  _362
REMARK  148  A    between atoms: _361  and  _364
REMARK  149  A    between atoms: _364  and  _365
REMARK  150  A    between atoms: _368  and  _370
REMARK  151  A    between atoms: _370  and  _371
REMARK  152  A    between atoms: _370  and  _373
REMARK  153  A    between atoms: _373  and  _374
REMARK  154  A    between atoms: _377  and  _379
REMARK  155  A    between atoms: _379  and  _380
REMARK  156  A    between atoms: _379  and  _382
REMARK  157  A    between atoms: _382  and  _383
REMARK  158  A    between atoms: _386  and  _388
REMARK  159  A    between atoms: _388  and  _389
REMARK  160  A    between atoms: _388  and  _391
REMARK  161  A    between atoms: _394  and  _396
REMARK  162  A    between atoms: _396  and  _397
REMARK  163  A    between atoms: _396  and  _399
REMARK  164  A    between atoms: _399  and  _400
REMARK  165  A    between atoms: _403  and  _405
REMARK  166  A    between atoms: _405  and  _406
REMARK  167  A    between atoms: _405  and  _408
REMARK  168  A    between atoms: _408  and  _409
REMARK  169  A    between atoms: _409  and  _410
REMARK  170  A    between atoms: _410  and  _411
REMARK  171  A    between atoms: _411  and  _412
REMARK  172  A    between atoms: _416  and  _418
REMARK  173  A    between atoms: _418  and  _419
REMARK  174  A    between atoms: _418  and  _421
REMARK  175  A    between atoms: _421  and  _422
REMARK  176  A    between atoms: _425  and  _427
REMARK  177  A    between atoms: _427  and  _428
REMARK  178  A    between atoms: _427  and  _430
REMARK  179  A    between atoms: _430  and  _431
REMARK  180  A    between atoms: _434  and  _436
REMARK  181  A    between atoms: _436  and  _437
REMARK  182  A    between atoms: _439  and  _441
REMARK  183  A    between atoms: _441  and  _442
REMARK  184  A    between atoms: _441  and  _444
REMARK  185  A    between atoms: _444  and  _445
REMARK  186  A    between atoms: _448  and  _450
REMARK  187  A    between atoms: _450  and  _451
REMARK  188  A    between atoms: _453  and  _455
REMARK  189  A    between atoms: _455  and  _456
REMARK  190  A    between atoms: _458  and  _460
REMARK  191  A    between atoms: _460  and  _461
REMARK  192  A    between atoms: _460  and  _463
REMARK  193  A    between atoms: _463  and  _464
REMARK  194  A    between atoms: _467  and  _469
REMARK  195  A    between atoms: _469  and  _470
REMARK  196  A    between atoms: _469  and  _472
REMARK  197  A    between atoms: _475  and  _477
REMARK  198  A    between atoms: _477  and  _478
REMARK  199  A    between atoms: _477  and  _480
REMARK  200  A    between atoms: _480  and  _481
REMARK  201  A    between atoms: _485  and  _486
REMARK  202  A    between atoms: _491  and  _493
REMARK  203  A    between atoms: _493  and  _494
REMARK  204  A    between atoms: _493  and  _496
REMARK  205  A    between atoms: _496  and  _497
REMARK  206  A    between atoms: _501  and  _502
REMARK  207  A    between atoms: _507  and  _509
REMARK  208  A    between atoms: _509  and  _510
REMARK  209  A    between atoms: _509  and  _512
REMARK  210  A    between atoms: _515  and  _517
REMARK  211  A    between atoms: _517  and  _518
REMARK  212  A    between atoms: _517  and  _520
REMARK  213  A    between atoms: _520  and  _521
REMARK  214  A    between atoms: _526  and  _528
REMARK  215  A    between atoms: _528  and  _529
REMARK  216  A    between atoms: _528  and  _531
REMARK  217  A    between atoms: _531  and  _532
REMARK  218  A    between atoms: _535  and  _537
REMARK  219  A    between atoms: _537  and  _538
REMARK  220  A    between atoms: _537  and  _540
REMARK  221  A    between atoms: _540  and  _541
REMARK  222  A    between atoms: _544  and  _546
REMARK  223  A    between atoms: _546  and  _547
REMARK  224  A    between atoms: _549  and  _551
REMARK  225  A    between atoms: _551  and  _552
REMARK  226  A    between atoms: _551  and  _554
REMARK  227  A    between atoms: _554  and  _555
REMARK  228  A    between atoms: _555  and  _556
REMARK  229  A    between atoms: _556  and  _557
REMARK                            x       y       z     vdW  Elec       q    Type
REMARK                         _______ _______ _______ _____ _____    ______ ____
ROOT
ATOM      1  CA  VAL A   1      11.556 -15.980 -21.768  0.00  0.00    +0.133 C 
ENDROOT
BRANCH   1   2
ATOM      2  CB  VAL A   1      11.799 -14.551 -21.245  0.00  0.00    +0.023 C 
ATOM      3  CG2 VAL A   1      11.398 -14.436 -19.788  0.00  0.00    +0.002 C 
ATOM      4  CG1 VAL A   1      13.257 -14.175 -21.430  0.00  0.00    +0.002 C 
ENDBRANCH   1   2
BRANCH   1   5
ATOM      5  N   VAL A   1      12.361 -16.965 -21.060  0.00  0.00    -0.239 NA
ATOM      6  H   VAL A   1      13.379 -17.041 -21.258  0.00  0.00    +0.142 HD
ENDBRANCH   1   5
BRANCH   1   7
ATOM      7  C   VAL A   1      11.881 -16.019 -23.250  0.00  0.00    +0.224 C 
ATOM      8  O   VAL A   1      12.862 -16.635 -23.650  0.00  0.00    -0.287 OA
ENDBRANCH   1   7
TORSDOF 3
REMARK  Name = ../refined-set-2016/4qgi/4qgi_pocket.pdb
REMARK  229 active torsions:
REMARK  status: ('A' for Active; 'I' for Inactive)
REMARK    1  A    between atoms: _1  and  _3
REMARK    2  A    between atoms: _3  and  _4
REMARK    3  A    between atoms: _3  and  _6
REMARK    4  A    between atoms: _6  and  _7
REMARK    5  A    between atoms: _7  and  _8
REMARK    6  A    between atoms: _8  and  _9
REMARK    7  A    between atoms: _18  and  _20
REMARK    8  A    between atoms: _20  and  _21
REMARK    9  A    between atoms: _20  and  _23
REMARK   10  A    between atoms: _23  and  _24
REMARK   11  A    between atoms: _27  and  _29
REMARK   12  A    between atoms: _29  and  _30
REMARK   13  A    between atoms: _29  and  _32
REMARK   14  A    between atoms: _32  and  _33
REMARK   15  A    between atoms: _36  and  _38
REMARK   16  A    between atoms: _38  and  _39
REMARK   17  A    between atoms: _38  and  _41
REMARK   18  A    between atoms: _41  and  _42
REMARK   19  A    between atoms: _45  and  _47
REMARK   20  A    between atoms: _47  and  _48
REMARK   21  A    between atoms: _47  and  _50
REMARK   22  A    between atoms: _50  and  _51
REMARK   23  A    between atoms: _54  and  _56
REMARK   24  A    between atoms: _56  and  _57
REMARK   25  A    between atoms: _59  and  _61
REMARK   26  A    between atoms: _61  and  _62
REMARK   27  A    between atoms: _65  and  _67
REMARK   28  A    between atoms: _67  and  _68
REMARK   29  A    between atoms: _67  and  _70
REMARK   30  A    between atoms: _70  and  _71
REMARK   31  A    between atoms: _74  and  _76
REMARK   32  A    between atoms: _76  and  _77
REMARK   33  A    between atoms: _76  and  _79
REMARK   34  A    between atoms: _79  and  _80
REMARK   35  A    between atoms: _83  and  _85
REMARK   36  A    between atoms: _85  and  _86
REMARK   37  A    between atoms: _85  and  _88
REMARK   38  A    between atoms: _88  and  _89
REMARK   39  A    between atoms: _92  and  _94
REMARK   40  A    between atoms: _94  and  _95
REMARK   41  A    between atoms: _94  and  _97
REMARK   42  A    between atoms: _100  and  _102
REMARK   43  A    between atoms: _102  and  _103
REMARK   44  A    between atoms: _102  and  _105
REMARK   45  A    between atoms: _105  and  _106
REMARK   46  A    between atoms: _106  and  _107
REMARK   47  A    between atoms: _107  and  _108
REMARK   48  A    between atoms: _108  and  _109
REMARK   49  A    between atoms: _113  and  _115
REMARK   50  A    between atoms: _115  and  _116
REMARK   51  A    between atoms: _115  and  _118
REMARK   52  A    between atoms: _118  and  _119
REMARK   53  A    between atoms: _119  and  _120
REMARK   54  A    between atoms: _122  and  _124
REMARK   55  A    between atoms: _124  and  _125
REMARK   56  A    between atoms: _124  and  _127
REMARK   57  A    between atoms: _127  and  _128
REMARK   58  A    between atoms: _131  and  _133
REMARK   59  A    between atoms: _133  and  _134
REMARK   60  A    between atoms: _133  and  _136
REMARK   61  A    between atoms: _136  and  _137
REMARK   62  A    between atoms: _140  and  _142
REMARK   63  A    between atoms: _142  and  _143
REMARK   64  A    between atoms: _145  and  _147
REMARK   65  A    between atoms: _147  and  _148
REMARK   66  A    between atoms: _147  and  _150
REMARK   67  A    between atoms: _150  and  _151
REMARK   68  A    between atoms: _154  and  _156
REMARK   69  A    between atoms: _156  and  _157
REMARK   70  A    between atoms: _159  and  _161
REMARK   71  A    between atoms: _161  and  _162
REMARK   72  A    between atoms: _164  and  _166
REMARK   73  A    between atoms: _166  and  _167
REMARK   74  A    between atoms: _166  and  _169
REMARK   75  A    between atoms: _169  and  _170
REMARK   76  A    between atoms: _176  and  _178
REMARK   77  A    between atoms: _178  and  _179
REMARK   78  A    between atoms: _178  and  _181
REMARK   79  A    between atoms: _181  and  _182
REMARK   80  A    between atoms: _185  and  _187
REMARK   81  A    between atoms: _187  and  _188
REMARK   82  A    between atoms: _187  and  _190
REMARK   83  A    between atoms: _193  and  _195
REMARK   84  A    between atoms: _195  and  _196
REMARK   85  A    between atoms: _195  and  _198
REMARK   86  A    between atoms: _198  and  _199
REMARK   87  A    between atoms: _203  and  _204
REMARK   88  A    between atoms: _209  and  _211
REMARK   89  A    between atoms: _211  and  _212
REMARK   90  A    between atoms: _211  and  _214
REMARK   91  A    between atoms: _214  and  _215
REMARK   92  A    between atoms: _219  and  _220
REMARK   93  A    between atoms: _225  and  _227
REMARK   94  A    between atoms: _227  and  _228
REMARK   95  A    between atoms: _227  and  _230
REMARK   96  A    between atoms: _233  and  _235
REMARK   97  A    between atoms: _235  and  _236
REMARK   98  A    between atoms: _235  and  _238
REMARK   99  A    between atoms: _238  and  _239
REMARK  100  A    between atoms: _244  and  _246
REMARK  101  A    between atoms: _246  and  _247
REMARK  102  A    between atoms: _246  and  _249
REMARK  103  A    between atoms: _249  and  _250
REMARK  104  A    between atoms: _253  and  _255
REMARK  105  A    between atoms: _255  and  _256
REMARK  106  A    between atoms: _255  and  _258
REMARK  107  A    between atoms: _258  and  _259
REMARK  108  A    between atoms: _262  and  _264
REMARK  109  A    between atoms: _264  and  _265
REMARK  110  A    between atoms: _267  and  _269
REMARK  111  A    between atoms: _269  and  _270
REMARK  112  A    between atoms: _269  and  _272
REMARK  113  A    between atoms: _272  and  _273
REMARK  114  A    between atoms: _273  and  _274
REMARK  115  A    between atoms: _274  and  _275
REMARK  116  A    between atoms: _284  and  _286
REMARK  117  A    between atoms: _286  and  _287
REMARK  118  A    between atoms: _286  and  _289
REMARK  119  A    between atoms: _289  and  _290
REMARK  120  A    between atoms: _295  and  _297
REMARK  121  A    between atoms: _297  and  _298
REMARK  122  A    between atoms: _297  and  _300
REMARK  123  A    between atoms: _300  and  _301
REMARK  124  A    between atoms: _301  and  _302
REMARK  125  A    between atoms: _302  and  _303
REMARK  126  A    between atoms: _312  and  _314
REMARK  127  A    between atoms: _314  and  _315
REMARK  128  A    between atoms: _314  and  _317
REMARK  129  A    between atoms: _317  and  _318
REMARK  130  A    between atoms: _321  and  _323
REMARK  131  A    between atoms: _323  and  _324
REMARK  132  A    between atoms: _323  and  _326
REMARK  133  A    between atoms: _326  and  _327
REMARK  134  A    between atoms: _330  and  _332
REMARK  135  A    between atoms: _332  and  _333
REMARK  136  A    between atoms: _332  and  _335
REMARK  137  A    between atoms: _335  and  _336
REMARK  138  A    between atoms: _339  and  _341
REMARK  139  A    between atoms: _341  and  _342
REMARK  140  A    between atoms: _341  and  _344
REMARK  141  A    between atoms: _344  and  _345
REMARK  142  A    between atoms: _348  and  _350
REMARK  143  A    between atoms: _350  and  _351
REMARK  144  A    between atoms: _353  and  _355
REMARK  145  A    between atoms: _355  and  _356
REMARK  146  A    between atoms: _359  and  _361
REMARK  147  A    between atoms: _361  and  _362
REMARK  148  A    between atoms: _361  and  _364
REMARK  149  A    between atoms: _364  and  _365
REMARK  150  A    between atoms: _368  and  _370
REMARK  151  A    between atoms: _370  and  _371
REMARK  152  A    between atoms: _370  and  _373
REMARK  153  A    between atoms: _373  and  _374
REMARK  154  A    between atoms: _377  and  _379
REMARK  155  A    between atoms: _379  and  _380
REMARK  156  A    between atoms: _379  and  _382
REMARK  157  A    between atoms: _382  and  _383
REMARK  158  A    between atoms: _386  and  _388
REMARK  159  A    between atoms: _388  and  _389
REMARK  160  A    between atoms: _388  and  _391
REMARK  161  A    between atoms: _394  and  _396
REMARK  162  A    between atoms: _396  and  _397
REMARK  163  A    between atoms: _396  and  _399
REMARK  164  A    between atoms: _399  and  _400
REMARK  165  A    between atoms: _403  and  _405
REMARK  166  A    between atoms: _405  and  _406
REMARK  167  A    between atoms: _405  and  _408
REMARK  168  A    between atoms: _408  and  _409
REMARK  169  A    between atoms: _409  and  _410
REMARK  170  A    between atoms: _410  and  _411
REMARK  171  A    between atoms: _411  and  _412
REMARK  172  A    between atoms: _416  and  _418
REMARK  173  A    between atoms: _418  and  _419
REMARK  174  A    between atoms: _418  and  _421
REMARK  175  A    between atoms: _421  and  _422
REMARK  176  A    between atoms: _425  and  _427
REMARK  177  A    between atoms: _427  and  _428
REMARK  178  A    between atoms: _427  and  _430
REMARK  179  A    between atoms: _430  and  _431
REMARK  180  A    between atoms: _434  and  _436
REMARK  181  A    between atoms: _436  and  _437
REMARK  182  A    between atoms: _439  and  _441
REMARK  183  A    between atoms: _441  and  _442
REMARK  184  A    between atoms: _441  and  _444
REMARK  185  A    between atoms: _444  and  _445
REMARK  186  A    between atoms: _448  and  _450
REMARK  187  A    between atoms: _450  and  _451
REMARK  188  A    between atoms: _453  and  _455
REMARK  189  A    between atoms: _455  and  _456
REMARK  190  A    between atoms: _458  and  _460
REMARK  191  A    between atoms: _460  and  _461
REMARK  192  A    between atoms: _460  and  _463
REMARK  193  A    between atoms: _463  and  _464
REMARK  194  A    between atoms: _467  and  _469
REMARK  195  A    between atoms: _469  and  _470
REMARK  196  A    between atoms: _469  and  _472
REMARK  197  A    between atoms: _475  and  _477
REMARK  198  A    between atoms: _477  and  _478
REMARK  199  A    between atoms: _477  and  _480
REMARK  200  A    between atoms: _480  and  _481
REMARK  201  A    between atoms: _485  and  _486
REMARK  202  A    between atoms: _491  and  _493
REMARK  203  A    between atoms: _493  and  _494
REMARK  204  A    between atoms: _493  and  _496
REMARK  205  A    between atoms: _496  and  _497
REMARK  206  A    between atoms: _501  and  _502
REMARK  207  A    between atoms: _507  and  _509
REMARK  208  A    between atoms: _509  and  _510
REMARK  209  A    between atoms: _509  and  _512
REMARK  210  A    between atoms: _515  and  _517
REMARK  211  A    between atoms: _517  and  _518
REMARK  212  A    between atoms: _517  and  _520
REMARK  213  A    between atoms: _520  and  _521
REMARK  214  A    between atoms: _526  and  _528
REMARK  215  A    between atoms: _528  and  _529
REMARK  216  A    between atoms: _528  and  _531
REMARK  217  A    between atoms: _531  and  _532
REMARK  218  A    between atoms: _535  and  _537
REMARK  219  A    between atoms: _537  and  _538
REMARK  220  A    between atoms: _537  and  _540
REMARK  221  A    between atoms: _540  and  _541
REMARK  222  A    between atoms: _544  and  _546
REMARK  223  A    between atoms: _546  and  _547
REMARK  224  A    between atoms: _549  and  _551
REMARK  225  A    between atoms: _551  and  _552
REMARK  226  A    between atoms: _551  and  _554
REMARK  227  A    between atoms: _554  and  _555
REMARK  228  A    between atoms: _555  and  _556
REMARK  229  A    between atoms: _556  and  _557
REMARK                            x       y       z     vdW  Elec       q    Type
REMARK                         _______ _______ _______ _____ _____    ______ ____
ROOT
ATOM      1  CA  LEU A   1      11.247 -10.194 -23.031  0.00  0.00    +0.133 C 
ENDROOT
BRANCH   1   2
ATOM      2  N   LEU A   1      11.191  -8.785 -23.364  0.00  0.00    -0.239 NA
ATOM      3  H   LEU A   1      11.091  -8.082 -22.604  0.00  0.00    +0.142 HD
ENDBRANCH   1   2
BRANCH   1   4
ATOM      4  C   LEU A   1       9.861 -10.645 -22.581  0.00  0.00    +0.224 C 
ATOM      5  O   LEU A   1       9.254 -10.056 -21.689  0.00  0.00    -0.287 OA
ENDBRANCH   1   4
BRANCH   1   6
ATOM      6  CB  LEU A   1      12.291 -10.456 -21.952  0.00  0.00    +0.025 C 
BRANCH   6   7
ATOM      7  CG  LEU A   1      13.693  -9.870 -22.188  0.00  0.00    +0.002 C 
ATOM      8  CD2 LEU A   1      14.512 -10.023 -20.933  0.00  0.00    +0.000 C 
ATOM      9  CD1 LEU A   1      14.402 -10.555 -23.370  0.00  0.00    +0.000 C 
ENDBRANCH   6   7
ENDBRANCH   1   6
TORSDOF 4
REMARK  Name = ../refined-set-2016/4qgi/4qgi_pocket.pdb
REMARK  229 active torsions:
REMARK  status: ('A' for Active; 'I' for Inactive)
REMARK    1  A    between atoms: _1  and  _3
REMARK    2  A    between atoms: _3  and  _4
REMARK    3  A    between atoms: _3  and  _6
REMARK    4  A    between atoms: _6  and  _7
REMARK    5  A    between atoms: _7  and  _8
REMARK    6  A    between atoms: _8  and  _9
REMARK    7  A    between atoms: _18  and  _20
REMARK    8  A    between atoms: _20  and  _21
REMARK    9  A    between atoms: _20  and  _23
REMARK   10  A    between atoms: _23  and  _24
REMARK   11  A    between atoms: _27  and  _29
REMARK   12  A    between atoms: _29  and  _30
REMARK   13  A    between atoms: _29  and  _32
REMARK   14  A    between atoms: _32  and  _33
REMARK   15  A    between atoms: _36  and  _38
REMARK   16  A    between atoms: _38  and  _39
REMARK   17  A    between atoms: _38  and  _41
REMARK   18  A    between atoms: _41  and  _42
REMARK   19  A    between atoms: _45  and  _47
REMARK   20  A    between atoms: _47  and  _48
REMARK   21  A    between atoms: _47  and  _50
REMARK   22  A    between atoms: _50  and  _51
REMARK   23  A    between atoms: _54  and  _56
REMARK   24  A    between atoms: _56  and  _57
REMARK   25  A    between atoms: _59  and  _61
REMARK   26  A    between atoms: _61  and  _62
REMARK   27  A    between atoms: _65  and  _67
REMARK   28  A    between atoms: _67  and  _68
REMARK   29  A    between atoms: _67  and  _70
REMARK   30  A    between atoms: _70  and  _71
REMARK   31  A    between atoms: _74  and  _76
REMARK   32  A    between atoms: _76  and  _77
REMARK   33  A    between atoms: _76  and  _79
REMARK   34  A    between atoms: _79  and  _80
REMARK   35  A    between atoms: _83  and  _85
REMARK   36  A    between atoms: _85  and  _86
REMARK   37  A    between atoms: _85  and  _88
REMARK   38  A    between atoms: _88  and  _89
REMARK   39  A    between atoms: _92  and  _94
REMARK   40  A    between atoms: _94  and  _95
REMARK   41  A    between atoms: _94  and  _97
REMARK   42  A    between atoms: _100  and  _102
REMARK   43  A    between atoms: _102  and  _103
REMARK   44  A    between atoms: _102  and  _105
REMARK   45  A    between atoms: _105  and  _106
REMARK   46  A    between atoms: _106  and  _107
REMARK   47  A    between atoms: _107  and  _108
REMARK   48  A    between atoms: _108  and  _109
REMARK   49  A    between atoms: _113  and  _115
REMARK   50  A    between atoms: _115  and  _116
REMARK   51  A    between atoms: _115  and  _118
REMARK   52  A    between atoms: _118  and  _119
REMARK   53  A    between atoms: _119  and  _120
REMARK   54  A    between atoms: _122  and  _124
REMARK   55  A    between atoms: _124  and  _125
REMARK   56  A    between atoms: _124  and  _127
REMARK   57  A    between atoms: _127  and  _128
REMARK   58  A    between atoms: _131  and  _133
REMARK   59  A    between atoms: _133  and  _134
REMARK   60  A    between atoms: _133  and  _136
REMARK   61  A    between atoms: _136  and  _137
REMARK   62  A    between atoms: _140  and  _142
REMARK   63  A    between atoms: _142  and  _143
REMARK   64  A    between atoms: _145  and  _147
REMARK   65  A    between atoms: _147  and  _148
REMARK   66  A    between atoms: _147  and  _150
REMARK   67  A    between atoms: _150  and  _151
REMARK   68  A    between atoms: _154  and  _156
REMARK   69  A    between atoms: _156  and  _157
REMARK   70  A    between atoms: _159  and  _161
REMARK   71  A    between atoms: _161  and  _162
REMARK   72  A    between atoms: _164  and  _166
REMARK   73  A    between atoms: _166  and  _167
REMARK   74  A    between atoms: _166  and  _169
REMARK   75  A    between atoms: _169  and  _170
REMARK   76  A    between atoms: _176  and  _178
REMARK   77  A    between atoms: _178  and  _179
REMARK   78  A    between atoms: _178  and  _181
REMARK   79  A    between atoms: _181  and  _182
REMARK   80  A    between atoms: _185  and  _187
REMARK   81  A    between atoms: _187  and  _188
REMARK   82  A    between atoms: _187  and  _190
REMARK   83  A    between atoms: _193  and  _195
REMARK   84  A    between atoms: _195  and  _196
REMARK   85  A    between atoms: _195  and  _198
REMARK   86  A    between atoms: _198  and  _199
REMARK   87  A    between atoms: _203  and  _204
REMARK   88  A    between atoms: _209  and  _211
REMARK   89  A    between atoms: _211  and  _212
REMARK   90  A    between atoms: _211  and  _214
REMARK   91  A    between atoms: _214  and  _215
REMARK   92  A    between atoms: _219  and  _220
REMARK   93  A    between atoms: _225  and  _227
REMARK   94  A    between atoms: _227  and  _228
REMARK   95  A    between atoms: _227  and  _230
REMARK   96  A    between atoms: _233  and  _235
REMARK   97  A    between atoms: _235  and  _236
REMARK   98  A    between atoms: _235  and  _238
REMARK   99  A    between atoms: _238  and  _239
REMARK  100  A    between atoms: _244  and  _246
REMARK  101  A    between atoms: _246  and  _247
REMARK  102  A    between atoms: _246  and  _249
REMARK  103  A    between atoms: _249  and  _250
REMARK  104  A    between atoms: _253  and  _255
REMARK  105  A    between atoms: _255  and  _256
REMARK  106  A    between atoms: _255  and  _258
REMARK  107  A    between atoms: _258  and  _259
REMARK  108  A    between atoms: _262  and  _264
REMARK  109  A    between atoms: _264  and  _265
REMARK  110  A    between atoms: _267  and  _269
REMARK  111  A    between atoms: _269  and  _270
REMARK  112  A    between atoms: _269  and  _272
REMARK  113  A    between atoms: _272  and  _273
REMARK  114  A    between atoms: _273  and  _274
REMARK  115  A    between atoms: _274  and  _275
REMARK  116  A    between atoms: _284  and  _286
REMARK  117  A    between atoms: _286  and  _287
REMARK  118  A    between atoms: _286  and  _289
REMARK  119  A    between atoms: _289  and  _290
REMARK  120  A    between atoms: _295  and  _297
REMARK  121  A    between atoms: _297  and  _298
REMARK  122  A    between atoms: _297  and  _300
REMARK  123  A    between atoms: _300  and  _301
REMARK  124  A    between atoms: _301  and  _302
REMARK  125  A    between atoms: _302  and  _303
REMARK  126  A    between atoms: _312  and  _314
REMARK  127  A    between atoms: _314  and  _315
REMARK  128  A    between atoms: _314  and  _317
REMARK  129  A    between atoms: _317  and  _318
REMARK  130  A    between atoms: _321  and  _323
REMARK  131  A    between atoms: _323  and  _324
REMARK  132  A    between atoms: _323  and  _326
REMARK  133  A    between atoms: _326  and  _327
REMARK  134  A    between atoms: _330  and  _332
REMARK  135  A    between atoms: _332  and  _333
REMARK  136  A    between atoms: _332  and  _335
REMARK  137  A    between atoms: _335  and  _336
REMARK  138  A    between atoms: _339  and  _341
REMARK  139  A    between atoms: _341  and  _342
REMARK  140  A    between atoms: _341  and  _344
REMARK  141  A    between atoms: _344  and  _345
REMARK  142  A    between atoms: _348  and  _350
REMARK  143  A    between atoms: _350  and  _351
REMARK  144  A    between atoms: _353  and  _355
REMARK  145  A    between atoms: _355  and  _356
REMARK  146  A    between atoms: _359  and  _361
REMARK  147  A    between atoms: _361  and  _362
REMARK  148  A    between atoms: _361  and  _364
REMARK  149  A    between atoms: _364  and  _365
REMARK  150  A    between atoms: _368  and  _370
REMARK  151  A    between atoms: _370  and  _371
REMARK  152  A    between atoms: _370  and  _373
REMARK  153  A    between atoms: _373  and  _374
REMARK  154  A    between atoms: _377  and  _379
REMARK  155  A    between atoms: _379  and  _380
REMARK  156  A    between atoms: _379  and  _382
REMARK  157  A    between atoms: _382  and  _383
REMARK  158  A    between atoms: _386  and  _388
REMARK  159  A    between atoms: _388  and  _389
REMARK  160  A    between atoms: _388  and  _391
REMARK  161  A    between atoms: _394  and  _396
REMARK  162  A    between atoms: _396  and  _397
REMARK  163  A    between atoms: _396  and  _399
REMARK  164  A    between atoms: _399  and  _400
REMARK  165  A    between atoms: _403  and  _405
REMARK  166  A    between atoms: _405  and  _406
REMARK  167  A    between atoms: _405  and  _408
REMARK  168  A    between atoms: _408  and  _409
REMARK  169  A    between atoms: _409  and  _410
REMARK  170  A    between atoms: _410  and  _411
REMARK  171  A    between atoms: _411  and  _412
REMARK  172  A    between atoms: _416  and  _418
REMARK  173  A    between atoms: _418  and  _419
REMARK  174  A    between atoms: _418  and  _421
REMARK  175  A    between atoms: _421  and  _422
REMARK  176  A    between atoms: _425  and  _427
REMARK  177  A    between atoms: _427  and  _428
REMARK  178  A    between atoms: _427  and  _430
REMARK  179  A    between atoms: _430  and  _431
REMARK  180  A    between atoms: _434  and  _436
REMARK  181  A    between atoms: _436  and  _437
REMARK  182  A    between atoms: _439  and  _441
REMARK  183  A    between atoms: _441  and  _442
REMARK  184  A    between atoms: _441  and  _444
REMARK  185  A    between atoms: _444  and  _445
REMARK  186  A    between atoms: _448  and  _450
REMARK  187  A    between atoms: _450  and  _451
REMARK  188  A    between atoms: _453  and  _455
REMARK  189  A    between atoms: _455  and  _456
REMARK  190  A    between atoms: _458  and  _460
REMARK  191  A    between atoms: _460  and  _461
REMARK  192  A    between atoms: _460  and  _463
REMARK  193  A    between atoms: _463  and  _464
REMARK  194  A    between atoms: _467  and  _469
REMARK  195  A    between atoms: _469  and  _470
REMARK  196  A    between atoms: _469  and  _472
REMARK  197  A    between atoms: _475  and  _477
REMARK  198  A    between atoms: _477  and  _478
REMARK  199  A    between atoms: _477  and  _480
REMARK  200  A    between atoms: _480  and  _481
REMARK  201  A    between atoms: _485  and  _486
REMARK  202  A    between atoms: _491  and  _493
REMARK  203  A    between atoms: _493  and  _494
REMARK  204  A    between atoms: _493  and  _496
REMARK  205  A    between atoms: _496  and  _497
REMARK  206  A    between atoms: _501  and  _502
REMARK  207  A    between atoms: _507  and  _509
REMARK  208  A    between atoms: _509  and  _510
REMARK  209  A    between atoms: _509  and  _512
REMARK  210  A    between atoms: _515  and  _517
REMARK  211  A    between atoms: _517  and  _518
REMARK  212  A    between atoms: _517  and  _520
REMARK  213  A    between atoms: _520  and  _521
REMARK  214  A    between atoms: _526  and  _528
REMARK  215  A    between atoms: _528  and  _529
REMARK  216  A    between atoms: _528  and  _531
REMARK  217  A    between atoms: _531  and  _532
REMARK  218  A    between atoms: _535  and  _537
REMARK  219  A    between atoms: _537  and  _538
REMARK  220  A    between atoms: _537  and  _540
REMARK  221  A    between atoms: _540  and  _541
REMARK  222  A    between atoms: _544  and  _546
REMARK  223  A    between atoms: _546  and  _547
REMARK  224  A    between atoms: _549  and  _551
REMARK  225  A    between atoms: _551  and  _552
REMARK  226  A    between atoms: _551  and  _554
REMARK  227  A    between atoms: _554  and  _555
REMARK  228  A    between atoms: _555  and  _556
REMARK  229  A    between atoms: _556  and  _557
REMARK                            x       y       z     vdW  Elec       q    Type
REMARK                         _______ _______ _______ _____ _____    ______ ____
ROOT
ATOM      1  CA  ILE A   6       8.236  -4.619 -15.541  0.00  0.00    +0.149 C 
ENDROOT
BRANCH   1   2
ATOM      2  C   ILE A   6       8.947  -3.894 -16.682  0.00  0.00    +0.241 C 
ATOM      3  N   ILE A   7       9.060  -2.576 -16.550  0.00  0.00    -0.297 N 
ATOM      4  H   ILE A   7       8.622  -2.111 -15.729  0.00  0.00    +0.150 HD
ATOM      5  O   ILE A   6       9.280  -4.494 -17.701  0.00  0.00    -0.273 OA
BRANCH   3   6
ATOM      6  CA  ILE A   7       9.777  -1.766 -17.519  0.00  0.00    +0.149 C 
BRANCH   6   7
ATOM      7  C   ILE A   7      11.163  -1.486 -16.943  0.00  0.00    +0.241 C 
ATOM      8  O   ILE A   7      11.302  -0.746 -15.960  0.00  0.00    -0.273 OA
ATOM      9  N   GLY A   8      12.185  -2.081 -17.545  0.00  0.00    -0.295 N 
ATOM     10  H   GLY A   8      12.009  -2.649 -18.398  0.00  0.00    +0.150 HD
BRANCH   9  11
ATOM     11  CA  GLY A   8      13.544  -1.959 -17.043  0.00  0.00    +0.176 C 
BRANCH  11  12
ATOM     12  C   GLY A   8      14.331  -0.834 -17.684  0.00  0.00    +0.243 C 
ATOM     13  N   ARG A   9      15.583  -0.687 -17.263  0.00  0.00    -0.297 N 
ATOM     14  H   ARG A   9      15.991  -1.396 -16.620  0.00  0.00    +0.150 HD
ATOM     15  O   GLY A   8      13.833  -0.120 -18.557  0.00  0.00    -0.273 OA
BRANCH  13  16
ATOM     16  CA  ARG A   9      16.396   0.448 -17.684  0.00  0.00    +0.149 C 
BRANCH  16  17
ATOM     17  C   ARG A   9      16.594   0.548 -19.203  0.00  0.00    +0.241 C 
ATOM     18  O   ARG A   9      16.735   1.644 -19.726  0.00  0.00    -0.273 OA
ATOM     19  N   ASN A  10      16.589  -0.576 -19.913  0.00  0.00    -0.298 N 
ATOM     20  H   ASN A  10      16.437  -1.492 -19.445  0.00  0.00    +0.150 HD
BRANCH  19  21
ATOM     21  CA  ASN A  10      16.799  -0.512 -21.356  0.00  0.00    +0.146 C 
BRANCH  21  22
ATOM     22  C   ASN A  10      15.739   0.347 -22.017  0.00  0.00    +0.227 C 
ATOM     23  O   ASN A  10      16.005   0.984 -23.013  0.00  0.00    -0.286 OA
ENDBRANCH  21  22
BRANCH  21  24
ATOM     24  CB  ASN A  10      16.816  -1.898 -21.992  0.00  0.00    +0.112 C 
BRANCH  24  25
ATOM     25  CG  ASN A  10      15.477  -2.555 -21.975  0.00  0.00    +0.222 C 
ATOM     26  OD1 ASN A  10      14.851  -2.662 -20.929  0.00  0.00    -0.275 OA
ATOM     27  ND2 ASN A  10      15.011  -2.993 -23.151  0.00  0.00    -0.329 N 
ATOM     28 HD21 ASN A  10      14.077  -3.448 -23.203  0.00  0.00    +0.145 HD
ATOM     29 HD22 ASN A  10      15.583  -2.878 -24.012  0.00  0.00    +0.145 HD
ENDBRANCH  24  25
ENDBRANCH  21  24
ENDBRANCH  19  21
ENDBRANCH  16  17
BRANCH  16  30
ATOM     30  CB  ARG A   9      17.756   0.391 -16.987  0.00  0.00    +0.033 C 
BRANCH  30  31
ATOM     31  CG  ARG A   9      17.686   0.583 -15.468  0.00  0.00    +0.045 C 
BRANCH  31  32
ATOM     32  CD  ARG A   9      19.094   0.691 -14.830  0.00  0.00    +0.174 C 
BRANCH  32  33
ATOM     33  NE  ARG A   9      19.863  -0.545 -15.020  0.00  0.00    -0.265 N 
ATOM     34  HE  ARG A   9      19.706  -1.329 -14.355  0.00  0.00    +0.259 HD
ATOM     35  CZ  ARG A   9      20.753  -0.718 -16.000  0.00  0.00    +0.342 C 
ATOM     36  NH2 ARG A   9      21.408  -1.869 -16.122  0.00  0.00    -0.292 N 
ATOM     37 HH21 ARG A   9      21.229  -2.643 -15.451  0.00  0.00    +0.255 HD
ATOM     38 HH22 ARG A   9      22.100  -1.995 -16.888  0.00  0.00    +0.255 HD
ATOM     39  NH1 ARG A   9      21.002   0.282 -16.849  0.00  0.00    -0.292 N 
ATOM     40 HH11 ARG A   9      20.504   1.189 -16.745  0.00  0.00    +0.255 HD
ATOM     41 HH12 ARG A   9      21.694   0.154 -17.615  0.00  0.00    +0.255 HD
ENDBRANCH  32  33
ENDBRANCH  31  32
ENDBRANCH  30  31
ENDBRANCH  16  30
ENDBRANCH  13  16
ENDBRANCH  11  12
ENDBRANCH   9  11
ENDBRANCH   6   7
BRANCH   6  42
ATOM     42  CB  ILE A   7       9.031  -0.443 -17.826  0.00  0.00    +0.027 C 
ATOM     43  CG2 ILE A   7       9.743   0.347 -18.918  0.00  0.00    +0.002 C 
BRANCH  42  44
ATOM     44  CG1 ILE A   7       7.575  -0.698 -18.216  0.00  0.00    +0.002 C 
ATOM     45  CD1 ILE A   7       7.377  -1.602 -19.413  0.00  0.00    +0.000 C 
ENDBRANCH  42  44
ENDBRANCH   6  42
ENDBRANCH   3   6
ENDBRANCH   1   2
BRANCH   1  48
ATOM     46  C   ASN A   5       5.943  -5.466 -15.654  0.00  0.00    +0.241 C 
ATOM     47  O   ASN A   5       5.535  -4.598 -14.872  0.00  0.00    -0.273 OA
ATOM     48  N   ILE A   6       7.215  -5.546 -16.049  0.00  0.00    -0.297 N 
ATOM     49  H   ILE A   6       7.490  -6.281 -16.732  0.00  0.00    +0.150 HD
BRANCH  46  50
ATOM     50  CA  ASN A   5       4.958  -6.493 -16.225  0.00  0.00    +0.158 C 
BRANCH  50  53
ATOM     51  C   VAL A   4       4.988  -7.981 -14.299  0.00  0.00    +0.241 C 
ATOM     52  O   VAL A   4       6.168  -8.267 -14.497  0.00  0.00    -0.273 OA
ATOM     53  N   ASN A   5       4.288  -7.214 -15.138  0.00  0.00    -0.297 N 
ATOM     54  H   ASN A   5       3.258  -7.127 -15.020  0.00  0.00    +0.150 HD
BRANCH  51  55
ATOM     55  CA  VAL A   4       4.274  -8.529 -13.058  0.00  0.00    +0.149 C 
BRANCH  55  58
ATOM     56  C   PRO A   3       3.775 -10.833 -12.373  0.00  0.00    +0.241 C 
ATOM     57  O   PRO A   3       2.598 -10.581 -12.155  0.00  0.00    -0.273 OA
ATOM     58  N   VAL A   4       4.642  -9.926 -12.827  0.00  0.00    -0.297 N 
ATOM     59  H   VAL A   4       5.619 -10.224 -13.025  0.00  0.00    +0.150 HD
BRANCH  56  65
ATOM     60  C   THR A   2       5.458 -12.613 -14.233  0.00  0.00    +0.246 C 
ATOM     61  N   PRO A   3       5.489 -12.575 -12.895  0.00  0.00    -0.272 N 
ATOM     62  CD  PRO A   3       6.619 -13.011 -12.056  0.00  0.00    +0.094 C 
ATOM     63  CG  PRO A   3       5.975 -13.280 -10.734  0.00  0.00    +0.024 C 
ATOM     64  CB  PRO A   3       4.794 -12.370 -10.657  0.00  0.00    +0.031 C 
ATOM     65  CA  PRO A   3       4.299 -12.242 -12.107  0.00  0.00    +0.152 C 
ATOM     66  O   THR A   2       4.434 -12.463 -14.879  0.00  0.00    -0.273 OA
BRANCH  60  67
ATOM     67  CA  THR A   2       6.765 -12.913 -14.935  0.00  0.00    +0.176 C 
BRANCH  67  70
ATOM     68  C   PRO A   1       6.485 -15.140 -15.831  0.00  0.00    +0.239 C 
ATOM     69  O   PRO A   1       6.857 -15.663 -14.779  0.00  0.00    -0.274 OA
ATOM     70  N   THR A   2       6.459 -13.826 -16.024  0.00  0.00    -0.295 N 
ATOM     71  H   THR A   2       6.218 -13.447 -16.962  0.00  0.00    +0.150 HD
BRANCH  68  73
ATOM     72  N   PRO A   1       6.789 -15.846 -18.197  0.00  0.00    -0.210 NA
ATOM     73  CA  PRO A   1       5.991 -16.008 -16.986  0.00  0.00    +0.149 C 
ATOM     74  CB  PRO A   1       6.143 -17.497 -16.675  0.00  0.00    +0.028 C 
ATOM     75  CG  PRO A   1       7.467 -17.844 -17.204  0.00  0.00    +0.021 C 
ATOM     76  CD  PRO A   1       7.628 -17.024 -18.464  0.00  0.00    +0.089 C 
ENDBRANCH  68  73
ENDBRANCH  67  70
BRANCH  67  77
ATOM     77  CB  THR A   2       7.416 -11.614 -15.410  0.00  0.00    +0.137 C 
ATOM     78  CG2 THR A   2       6.566 -10.957 -16.476  0.00  0.00    +0.034 C 
BRANCH  77  79
ATOM     79  OG1 THR A   2       7.527 -10.714 -14.294  0.00  0.00    -0.382 OA
ATOM     80  HG1 THR A   2       6.625 -10.525 -13.933  0.00  0.00    +0.210 HD
ENDBRANCH  77  79
ENDBRANCH  67  77
ENDBRANCH  60  67
ENDBRANCH  56  65
ENDBRANCH  55  58
BRANCH  55  81
ATOM     81  CB  VAL A   4       4.652  -7.631 -11.839  0.00  0.00    +0.027 C 
ATOM     82  CG2 VAL A   4       4.157  -8.238 -10.518  0.00  0.00    +0.002 C 
ATOM     83  CG1 VAL A   4       4.137  -6.204 -12.027  0.00  0.00    +0.002 C 
ENDBRANCH  55  81
ENDBRANCH  51  55
ENDBRANCH  50  53
BRANCH  50  84
ATOM     84  CB  ASN A   5       3.955  -5.771 -17.130  0.00  0.00    +0.114 C 
BRANCH  84  85
ATOM     85  CG  ASN A   5       2.994  -6.718 -17.820  0.00  0.00    +0.222 C 
ATOM     86  ND2 ASN A   5       1.790  -6.225 -18.113  0.00  0.00    -0.329 N 
ATOM     87 HD21 ASN A   5       1.539  -5.258 -17.823  0.00  0.00    +0.145 HD
ATOM     88 HD22 ASN A   5       1.102  -6.807 -18.631  0.00  0.00    +0.145 HD
ATOM     89  OD1 ASN A   5       3.344  -7.859 -18.140  0.00  0.00    -0.275 OA
ENDBRANCH  84  85
ENDBRANCH  50  84
ENDBRANCH  46  50
ENDBRANCH   1  48
BRANCH   1  90
ATOM     90  CB  ILE A   6       9.271  -5.333 -14.620  0.00  0.00    +0.027 C 
ATOM     91  CG2 ILE A   6       8.561  -6.108 -13.498  0.00  0.00    +0.002 C 
BRANCH  90  92
ATOM     92  CG1 ILE A   6      10.198  -6.279 -15.387  0.00  0.00    +0.002 C 
ATOM     93  CD1 ILE A   6      11.260  -6.905 -14.491  0.00  0.00    +0.000 C 
ENDBRANCH  90  92
ENDBRANCH   1  90
TORSDOF 33
REMARK  Name = ../refined-set-2016/4qgi/4qgi_pocket.pdb
REMARK  229 active torsions:
REMARK  status: ('A' for Active; 'I' for Inactive)
REMARK    1  A    between atoms: _1  and  _3
REMARK    2  A    between atoms: _3  and  _4
REMARK    3  A    between atoms: _3  and  _6
REMARK    4  A    between atoms: _6  and  _7
REMARK    5  A    between atoms: _7  and  _8
REMARK    6  A    between atoms: _8  and  _9
REMARK    7  A    between atoms: _18  and  _20
REMARK    8  A    between atoms: _20  and  _21
REMARK    9  A    between atoms: _20  and  _23
REMARK   10  A    between atoms: _23  and  _24
REMARK   11  A    between atoms: _27  and  _29
REMARK   12  A    between atoms: _29  and  _30
REMARK   13  A    between atoms: _29  and  _32
REMARK   14  A    between atoms: _32  and  _33
REMARK   15  A    between atoms: _36  and  _38
REMARK   16  A    between atoms: _38  and  _39
REMARK   17  A    between atoms: _38  and  _41
REMARK   18  A    between atoms: _41  and  _42
REMARK   19  A    between atoms: _45  and  _47
REMARK   20  A    between atoms: _47  and  _48
REMARK   21  A    between atoms: _47  and  _50
REMARK   22  A    between atoms: _50  and  _51
REMARK   23  A    between atoms: _54  and  _56
REMARK   24  A    between atoms: _56  and  _57
REMARK   25  A    between atoms: _59  and  _61
REMARK   26  A    between atoms: _61  and  _62
REMARK   27  A    between atoms: _65  and  _67
REMARK   28  A    between atoms: _67  and  _68
REMARK   29  A    between atoms: _67  and  _70
REMARK   30  A    between atoms: _70  and  _71
REMARK   31  A    between atoms: _74  and  _76
REMARK   32  A    between atoms: _76  and  _77
REMARK   33  A    between atoms: _76  and  _79
REMARK   34  A    between atoms: _79  and  _80
REMARK   35  A    between atoms: _83  and  _85
REMARK   36  A    between atoms: _85  and  _86
REMARK   37  A    between atoms: _85  and  _88
REMARK   38  A    between atoms: _88  and  _89
REMARK   39  A    between atoms: _92  and  _94
REMARK   40  A    between atoms: _94  and  _95
REMARK   41  A    between atoms: _94  and  _97
REMARK   42  A    between atoms: _100  and  _102
REMARK   43  A    between atoms: _102  and  _103
REMARK   44  A    between atoms: _102  and  _105
REMARK   45  A    between atoms: _105  and  _106
REMARK   46  A    between atoms: _106  and  _107
REMARK   47  A    between atoms: _107  and  _108
REMARK   48  A    between atoms: _108  and  _109
REMARK   49  A    between atoms: _113  and  _115
REMARK   50  A    between atoms: _115  and  _116
REMARK   51  A    between atoms: _115  and  _118
REMARK   52  A    between atoms: _118  and  _119
REMARK   53  A    between atoms: _119  and  _120
REMARK   54  A    between atoms: _122  and  _124
REMARK   55  A    between atoms: _124  and  _125
REMARK   56  A    between atoms: _124  and  _127
REMARK   57  A    between atoms: _127  and  _128
REMARK   58  A    between atoms: _131  and  _133
REMARK   59  A    between atoms: _133  and  _134
REMARK   60  A    between atoms: _133  and  _136
REMARK   61  A    between atoms: _136  and  _137
REMARK   62  A    between atoms: _140  and  _142
REMARK   63  A    between atoms: _142  and  _143
REMARK   64  A    between atoms: _145  and  _147
REMARK   65  A    between atoms: _147  and  _148
REMARK   66  A    between atoms: _147  and  _150
REMARK   67  A    between atoms: _150  and  _151
REMARK   68  A    between atoms: _154  and  _156
REMARK   69  A    between atoms: _156  and  _157
REMARK   70  A    between atoms: _159  and  _161
REMARK   71  A    between atoms: _161  and  _162
REMARK   72  A    between atoms: _164  and  _166
REMARK   73  A    between atoms: _166  and  _167
REMARK   74  A    between atoms: _166  and  _169
REMARK   75  A    between atoms: _169  and  _170
REMARK   76  A    between atoms: _176  and  _178
REMARK   77  A    between atoms: _178  and  _179
REMARK   78  A    between atoms: _178  and  _181
REMARK   79  A    between atoms: _181  and  _182
REMARK   80  A    between atoms: _185  and  _187
REMARK   81  A    between atoms: _187  and  _188
REMARK   82  A    between atoms: _187  and  _190
REMARK   83  A    between atoms: _193  and  _195
REMARK   84  A    between atoms: _195  and  _196
REMARK   85  A    between atoms: _195  and  _198
REMARK   86  A    between atoms: _198  and  _199
REMARK   87  A    between atoms: _203  and  _204
REMARK   88  A    between atoms: _209  and  _211
REMARK   89  A    between atoms: _211  and  _212
REMARK   90  A    between atoms: _211  and  _214
REMARK   91  A    between atoms: _214  and  _215
REMARK   92  A    between atoms: _219  and  _220
REMARK   93  A    between atoms: _225  and  _227
REMARK   94  A    between atoms: _227  and  _228
REMARK   95  A    between atoms: _227  and  _230
REMARK   96  A    between atoms: _233  and  _235
REMARK   97  A    between atoms: _235  and  _236
REMARK   98  A    between atoms: _235  and  _238
REMARK   99  A    between atoms: _238  and  _239
REMARK  100  A    between atoms: _244  and  _246
REMARK  101  A    between atoms: _246  and  _247
REMARK  102  A    between atoms: _246  and  _249
REMARK  103  A    between atoms: _249  and  _250
REMARK  104  A    between atoms: _253  and  _255
REMARK  105  A    between atoms: _255  and  _256
REMARK  106  A    between atoms: _255  and  _258
REMARK  107  A    between atoms: _258  and  _259
REMARK  108  A    between atoms: _262  and  _264
REMARK  109  A    between atoms: _264  and  _265
REMARK  110  A    between atoms: _267  and  _269
REMARK  111  A    between atoms: _269  and  _270
REMARK  112  A    between atoms: _269  and  _272
REMARK  113  A    between atoms: _272  and  _273
REMARK  114  A    between atoms: _273  and  _274
REMARK  115  A    between atoms: _274  and  _275
REMARK  116  A    between atoms: _284  and  _286
REMARK  117  A    between atoms: _286  and  _287
REMARK  118  A    between atoms: _286  and  _289
REMARK  119  A    between atoms: _289  and  _290
REMARK  120  A    between atoms: _295  and  _297
REMARK  121  A    between atoms: _297  and  _298
REMARK  122  A    between atoms: _297  and  _300
REMARK  123  A    between atoms: _300  and  _301
REMARK  124  A    between atoms: _301  and  _302
REMARK  125  A    between atoms: _302  and  _303
REMARK  126  A    between atoms: _312  and  _314
REMARK  127  A    between atoms: _314  and  _315
REMARK  128  A    between atoms: _314  and  _317
REMARK  129  A    between atoms: _317  and  _318
REMARK  130  A    between atoms: _321  and  _323
REMARK  131  A    between atoms: _323  and  _324
REMARK  132  A    between atoms: _323  and  _326
REMARK  133  A    between atoms: _326  and  _327
REMARK  134  A    between atoms: _330  and  _332
REMARK  135  A    between atoms: _332  and  _333
REMARK  136  A    between atoms: _332  and  _335
REMARK  137  A    between atoms: _335  and  _336
REMARK  138  A    between atoms: _339  and  _341
REMARK  139  A    between atoms: _341  and  _342
REMARK  140  A    between atoms: _341  and  _344
REMARK  141  A    between atoms: _344  and  _345
REMARK  142  A    between atoms: _348  and  _350
REMARK  143  A    between atoms: _350  and  _351
REMARK  144  A    between atoms: _353  and  _355
REMARK  145  A    between atoms: _355  and  _356
REMARK  146  A    between atoms: _359  and  _361
REMARK  147  A    between atoms: _361  and  _362
REMARK  148  A    between atoms: _361  and  _364
REMARK  149  A    between atoms: _364  and  _365
REMARK  150  A    between atoms: _368  and  _370
REMARK  151  A    between atoms: _370  and  _371
REMARK  152  A    between atoms: _370  and  _373
REMARK  153  A    between atoms: _373  and  _374
REMARK  154  A    between atoms: _377  and  _379
REMARK  155  A    between atoms: _379  and  _380
REMARK  156  A    between atoms: _379  and  _382
REMARK  157  A    between atoms: _382  and  _383
REMARK  158  A    between atoms: _386  and  _388
REMARK  159  A    between atoms: _388  and  _389
REMARK  160  A    between atoms: _388  and  _391
REMARK  161  A    between atoms: _394  and  _396
REMARK  162  A    between atoms: _396  and  _397
REMARK  163  A    between atoms: _396  and  _399
REMARK  164  A    between atoms: _399  and  _400
REMARK  165  A    between atoms: _403  and  _405
REMARK  166  A    between atoms: _405  and  _406
REMARK  167  A    between atoms: _405  and  _408
REMARK  168  A    between atoms: _408  and  _409
REMARK  169  A    between atoms: _409  and  _410
REMARK  170  A    between atoms: _410  and  _411
REMARK  171  A    between atoms: _411  and  _412
REMARK  172  A    between atoms: _416  and  _418
REMARK  173  A    between atoms: _418  and  _419
REMARK  174  A    between atoms: _418  and  _421
REMARK  175  A    between atoms: _421  and  _422
REMARK  176  A    between atoms: _425  and  _427
REMARK  177  A    between atoms: _427  and  _428
REMARK  178  A    between atoms: _427  and  _430
REMARK  179  A    between atoms: _430  and  _431
REMARK  180  A    between atoms: _434  and  _436
REMARK  181  A    between atoms: _436  and  _437
REMARK  182  A    between atoms: _439  and  _441
REMARK  183  A    between atoms: _441  and  _442
REMARK  184  A    between atoms: _441  and  _444
REMARK  185  A    between atoms: _444  and  _445
REMARK  186  A    between atoms: _448  and  _450
REMARK  187  A    between atoms: _450  and  _451
REMARK  188  A    between atoms: _453  and  _455
REMARK  189  A    between atoms: _455  and  _456
REMARK  190  A    between atoms: _458  and  _460
REMARK  191  A    between atoms: _460  and  _461
REMARK  192  A    between atoms: _460  and  _463
REMARK  193  A    between atoms: _463  and  _464
REMARK  194  A    between atoms: _467  and  _469
REMARK  195  A    between atoms: _469  and  _470
REMARK  196  A    between atoms: _469  and  _472
REMARK  197  A    between atoms: _475  and  _477
REMARK  198  A    between atoms: _477  and  _478
REMARK  199  A    between atoms: _477  and  _480
REMARK  200  A    between atoms: _480  and  _481
REMARK  201  A    between atoms: _485  and  _486
REMARK  202  A    between atoms: _491  and  _493
REMARK  203  A    between atoms: _493  and  _494
REMARK  204  A    between atoms: _493  and  _496
REMARK  205  A    between atoms: _496  and  _497
REMARK  206  A    between atoms: _501  and  _502
REMARK  207  A    between atoms: _507  and  _509
REMARK  208  A    between atoms: _509  and  _510
REMARK  209  A    between atoms: _509  and  _512
REMARK  210  A    between atoms: _515  and  _517
REMARK  211  A    between atoms: _517  and  _518
REMARK  212  A    between atoms: _517  and  _520
REMARK  213  A    between atoms: _520  and  _521
REMARK  214  A    between atoms: _526  and  _528
REMARK  215  A    between atoms: _528  and  _529
REMARK  216  A    between atoms: _528  and  _531
REMARK  217  A    between atoms: _531  and  _532
REMARK  218  A    between atoms: _535  and  _537
REMARK  219  A    between atoms: _537  and  _538
REMARK  220  A    between atoms: _537  and  _540
REMARK  221  A    between atoms: _540  and  _541
REMARK  222  A    between atoms: _544  and  _546
REMARK  223  A    between atoms: _546  and  _547
REMARK  224  A    between atoms: _549  and  _551
REMARK  225  A    between atoms: _551  and  _552
REMARK  226  A    between atoms: _551  and  _554
REMARK  227  A    between atoms: _554  and  _555
REMARK  228  A    between atoms: _555  and  _556
REMARK  229  A    between atoms: _556  and  _557
REMARK                            x       y       z     vdW  Elec       q    Type
REMARK                         _______ _______ _______ _____ _____    ______ ____
ROOT
ATOM      1  NE  ARG A   1      22.862  -4.482 -13.158  0.00  0.00    -0.265 N 
ATOM      2  HE  ARG A   1      21.881  -4.707 -13.422  0.00  0.00    +0.259 HD
ATOM      3  CZ  ARG A   1      23.837  -5.204 -13.703  0.00  0.00    +0.342 C 
ATOM      4  NH2 ARG A   1      25.107  -4.955 -13.395  0.00  0.00    -0.292 N 
ATOM      5 HH21 ARG A   1      25.340  -4.194 -12.726  0.00  0.00    +0.255 HD
ATOM      6 HH22 ARG A   1      25.867  -5.522 -13.823  0.00  0.00    +0.255 HD
ATOM      7  NH1 ARG A   1      23.548  -6.174 -14.562  0.00  0.00    -0.292 N 
ATOM      8 HH11 ARG A   1      22.557  -6.371 -14.810  0.00  0.00    +0.255 HD
ATOM      9 HH12 ARG A   1      24.312  -6.737 -14.987  0.00  0.00    +0.255 HD
ENDROOT
BRANCH   1  10
ATOM     10  CD  ARG A   1      23.086  -3.390 -12.209  0.00  0.00    +0.174 C 
BRANCH  10  11
ATOM     11  CG  ARG A   1      22.907  -2.039 -12.884  0.00  0.00    +0.045 C 
BRANCH  11  12
ATOM     12  CB  ARG A   1      23.086  -0.895 -11.922  0.00  0.00    +0.029 C 
BRANCH  12  13
ATOM     13  CA  ARG A   1      22.643   0.443 -12.512  0.00  0.00    +0.133 C 
BRANCH  13  14
ATOM     14  N   ARG A   1      23.435   0.749 -13.699  0.00  0.00    -0.239 NA
ATOM     15  H   ARG A   1      24.225   0.125 -13.961  0.00  0.00    +0.142 HD
ENDBRANCH  13  14
BRANCH  13  16
ATOM     16  C   ARG A   1      22.772   1.566 -11.476  0.00  0.00    +0.224 C 
ATOM     17  O   ARG A   1      23.875   1.978 -11.158  0.00  0.00    -0.287 OA
ENDBRANCH  13  16
ENDBRANCH  12  13
ENDBRANCH  11  12
ENDBRANCH  10  11
ENDBRANCH   1  10
TORSDOF 6
REMARK  Name = ../refined-set-2016/4qgi/4qgi_pocket.pdb
REMARK  229 active torsions:
REMARK  status: ('A' for Active; 'I' for Inactive)
REMARK    1  A    between atoms: _1  and  _3
REMARK    2  A    between atoms: _3  and  _4
REMARK    3  A    between atoms: _3  and  _6
REMARK    4  A    between atoms: _6  and  _7
REMARK    5  A    between atoms: _7  and  _8
REMARK    6  A    between atoms: _8  and  _9
REMARK    7  A    between atoms: _18  and  _20
REMARK    8  A    between atoms: _20  and  _21
REMARK    9  A    between atoms: _20  and  _23
REMARK   10  A    between atoms: _23  and  _24
REMARK   11  A    between atoms: _27  and  _29
REMARK   12  A    between atoms: _29  and  _30
REMARK   13  A    between atoms: _29  and  _32
REMARK   14  A    between atoms: _32  and  _33
REMARK   15  A    between atoms: _36  and  _38
REMARK   16  A    between atoms: _38  and  _39
REMARK   17  A    between atoms: _38  and  _41
REMARK   18  A    between atoms: _41  and  _42
REMARK   19  A    between atoms: _45  and  _47
REMARK   20  A    between atoms: _47  and  _48
REMARK   21  A    between atoms: _47  and  _50
REMARK   22  A    between atoms: _50  and  _51
REMARK   23  A    between atoms: _54  and  _56
REMARK   24  A    between atoms: _56  and  _57
REMARK   25  A    between atoms: _59  and  _61
REMARK   26  A    between atoms: _61  and  _62
REMARK   27  A    between atoms: _65  and  _67
REMARK   28  A    between atoms: _67  and  _68
REMARK   29  A    between atoms: _67  and  _70
REMARK   30  A    between atoms: _70  and  _71
REMARK   31  A    between atoms: _74  and  _76
REMARK   32  A    between atoms: _76  and  _77
REMARK   33  A    between atoms: _76  and  _79
REMARK   34  A    between atoms: _79  and  _80
REMARK   35  A    between atoms: _83  and  _85
REMARK   36  A    between atoms: _85  and  _86
REMARK   37  A    between atoms: _85  and  _88
REMARK   38  A    between atoms: _88  and  _89
REMARK   39  A    between atoms: _92  and  _94
REMARK   40  A    between atoms: _94  and  _95
REMARK   41  A    between atoms: _94  and  _97
REMARK   42  A    between atoms: _100  and  _102
REMARK   43  A    between atoms: _102  and  _103
REMARK   44  A    between atoms: _102  and  _105
REMARK   45  A    between atoms: _105  and  _106
REMARK   46  A    between atoms: _106  and  _107
REMARK   47  A    between atoms: _107  and  _108
REMARK   48  A    between atoms: _108  and  _109
REMARK   49  A    between atoms: _113  and  _115
REMARK   50  A    between atoms: _115  and  _116
REMARK   51  A    between atoms: _115  and  _118
REMARK   52  A    between atoms: _118  and  _119
REMARK   53  A    between atoms: _119  and  _120
REMARK   54  A    between atoms: _122  and  _124
REMARK   55  A    between atoms: _124  and  _125
REMARK   56  A    between atoms: _124  and  _127
REMARK   57  A    between atoms: _127  and  _128
REMARK   58  A    between atoms: _131  and  _133
REMARK   59  A    between atoms: _133  and  _134
REMARK   60  A    between atoms: _133  and  _136
REMARK   61  A    between atoms: _136  and  _137
REMARK   62  A    between atoms: _140  and  _142
REMARK   63  A    between atoms: _142  and  _143
REMARK   64  A    between atoms: _145  and  _147
REMARK   65  A    between atoms: _147  and  _148
REMARK   66  A    between atoms: _147  and  _150
REMARK   67  A    between atoms: _150  and  _151
REMARK   68  A    between atoms: _154  and  _156
REMARK   69  A    between atoms: _156  and  _157
REMARK   70  A    between atoms: _159  and  _161
REMARK   71  A    between atoms: _161  and  _162
REMARK   72  A    between atoms: _164  and  _166
REMARK   73  A    between atoms: _166  and  _167
REMARK   74  A    between atoms: _166  and  _169
REMARK   75  A    between atoms: _169  and  _170
REMARK   76  A    between atoms: _176  and  _178
REMARK   77  A    between atoms: _178  and  _179
REMARK   78  A    between atoms: _178  and  _181
REMARK   79  A    between atoms: _181  and  _182
REMARK   80  A    between atoms: _185  and  _187
REMARK   81  A    between atoms: _187  and  _188
REMARK   82  A    between atoms: _187  and  _190
REMARK   83  A    between atoms: _193  and  _195
REMARK   84  A    between atoms: _195  and  _196
REMARK   85  A    between atoms: _195  and  _198
REMARK   86  A    between atoms: _198  and  _199
REMARK   87  A    between atoms: _203  and  _204
REMARK   88  A    between atoms: _209  and  _211
REMARK   89  A    between atoms: _211  and  _212
REMARK   90  A    between atoms: _211  and  _214
REMARK   91  A    between atoms: _214  and  _215
REMARK   92  A    between atoms: _219  and  _220
REMARK   93  A    between atoms: _225  and  _227
REMARK   94  A    between atoms: _227  and  _228
REMARK   95  A    between atoms: _227  and  _230
REMARK   96  A    between atoms: _233  and  _235
REMARK   97  A    between atoms: _235  and  _236
REMARK   98  A    between atoms: _235  and  _238
REMARK   99  A    between atoms: _238  and  _239
REMARK  100  A    between atoms: _244  and  _246
REMARK  101  A    between atoms: _246  and  _247
REMARK  102  A    between atoms: _246  and  _249
REMARK  103  A    between atoms: _249  and  _250
REMARK  104  A    between atoms: _253  and  _255
REMARK  105  A    between atoms: _255  and  _256
REMARK  106  A    between atoms: _255  and  _258
REMARK  107  A    between atoms: _258  and  _259
REMARK  108  A    between atoms: _262  and  _264
REMARK  109  A    between atoms: _264  and  _265
REMARK  110  A    between atoms: _267  and  _269
REMARK  111  A    between atoms: _269  and  _270
REMARK  112  A    between atoms: _269  and  _272
REMARK  113  A    between atoms: _272  and  _273
REMARK  114  A    between atoms: _273  and  _274
REMARK  115  A    between atoms: _274  and  _275
REMARK  116  A    between atoms: _284  and  _286
REMARK  117  A    between atoms: _286  and  _287
REMARK  118  A    between atoms: _286  and  _289
REMARK  119  A    between atoms: _289  and  _290
REMARK  120  A    between atoms: _295  and  _297
REMARK  121  A    between atoms: _297  and  _298
REMARK  122  A    between atoms: _297  and  _300
REMARK  123  A    between atoms: _300  and  _301
REMARK  124  A    between atoms: _301  and  _302
REMARK  125  A    between atoms: _302  and  _303
REMARK  126  A    between atoms: _312  and  _314
REMARK  127  A    between atoms: _314  and  _315
REMARK  128  A    between atoms: _314  and  _317
REMARK  129  A    between atoms: _317  and  _318
REMARK  130  A    between atoms: _321  and  _323
REMARK  131  A    between atoms: _323  and  _324
REMARK  132  A    between atoms: _323  and  _326
REMARK  133  A    between atoms: _326  and  _327
REMARK  134  A    between atoms: _330  and  _332
REMARK  135  A    between atoms: _332  and  _333
REMARK  136  A    between atoms: _332  and  _335
REMARK  137  A    between atoms: _335  and  _336
REMARK  138  A    between atoms: _339  and  _341
REMARK  139  A    between atoms: _341  and  _342
REMARK  140  A    between atoms: _341  and  _344
REMARK  141  A    between atoms: _344  and  _345
REMARK  142  A    between atoms: _348  and  _350
REMARK  143  A    between atoms: _350  and  _351
REMARK  144  A    between atoms: _353  and  _355
REMARK  145  A    between atoms: _355  and  _356
REMARK  146  A    between atoms: _359  and  _361
REMARK  147  A    between atoms: _361  and  _362
REMARK  148  A    between atoms: _361  and  _364
REMARK  149  A    between atoms: _364  and  _365
REMARK  150  A    between atoms: _368  and  _370
REMARK  151  A    between atoms: _370  and  _371
REMARK  152  A    between atoms: _370  and  _373
REMARK  153  A    between atoms: _373  and  _374
REMARK  154  A    between atoms: _377  and  _379
REMARK  155  A    between atoms: _379  and  _380
REMARK  156  A    between atoms: _379  and  _382
REMARK  157  A    between atoms: _382  and  _383
REMARK  158  A    between atoms: _386  and  _388
REMARK  159  A    between atoms: _388  and  _389
REMARK  160  A    between atoms: _388  and  _391
REMARK  161  A    between atoms: _394  and  _396
REMARK  162  A    between atoms: _396  and  _397
REMARK  163  A    between atoms: _396  and  _399
REMARK  164  A    between atoms: _399  and  _400
REMARK  165  A    between atoms: _403  and  _405
REMARK  166  A    between atoms: _405  and  _406
REMARK  167  A    between atoms: _405  and  _408
REMARK  168  A    between atoms: _408  and  _409
REMARK  169  A    between atoms: _409  and  _410
REMARK  170  A    between atoms: _410  and  _411
REMARK  171  A    between atoms: _411  and  _412
REMARK  172  A    between atoms: _416  and  _418
REMARK  173  A    between atoms: _418  and  _419
REMARK  174  A    between atoms: _418  and  _421
REMARK  175  A    between atoms: _421  and  _422
REMARK  176  A    between atoms: _425  and  _427
REMARK  177  A    between atoms: _427  and  _428
REMARK  178  A    between atoms: _427  and  _430
REMARK  179  A    between atoms: _430  and  _431
REMARK  180  A    between atoms: _434  and  _436
REMARK  181  A    between atoms: _436  and  _437
REMARK  182  A    between atoms: _439  and  _441
REMARK  183  A    between atoms: _441  and  _442
REMARK  184  A    between atoms: _441  and  _444
REMARK  185  A    between atoms: _444  and  _445
REMARK  186  A    between atoms: _448  and  _450
REMARK  187  A    between atoms: _450  and  _451
REMARK  188  A    between atoms: _453  and  _455
REMARK  189  A    between atoms: _455  and  _456
REMARK  190  A    between atoms: _458  and  _460
REMARK  191  A    between atoms: _460  and  _461
REMARK  192  A    between atoms: _460  and  _463
REMARK  193  A    between atoms: _463  and  _464
REMARK  194  A    between atoms: _467  and  _469
REMARK  195  A    between atoms: _469  and  _470
REMARK  196  A    between atoms: _469  and  _472
REMARK  197  A    between atoms: _475  and  _477
REMARK  198  A    between atoms: _477  and  _478
REMARK  199  A    between atoms: _477  and  _480
REMARK  200  A    between atoms: _480  and  _481
REMARK  201  A    between atoms: _485  and  _486
REMARK  202  A    between atoms: _491  and  _493
REMARK  203  A    between atoms: _493  and  _494
REMARK  204  A    between atoms: _493  and  _496
REMARK  205  A    between atoms: _496  and  _497
REMARK  206  A    between atoms: _501  and  _502
REMARK  207  A    between atoms: _507  and  _509
REMARK  208  A    between atoms: _509  and  _510
REMARK  209  A    between atoms: _509  and  _512
REMARK  210  A    between atoms: _515  and  _517
REMARK  211  A    between atoms: _517  and  _518
REMARK  212  A    between atoms: _517  and  _520
REMARK  213  A    between atoms: _520  and  _521
REMARK  214  A    between atoms: _526  and  _528
REMARK  215  A    between atoms: _528  and  _529
REMARK  216  A    between atoms: _528  and  _531
REMARK  217  A    between atoms: _531  and  _532
REMARK  218  A    between atoms: _535  and  _537
REMARK  219  A    between atoms: _537  and  _538
REMARK  220  A    between atoms: _537  and  _540
REMARK  221  A    between atoms: _540  and  _541
REMARK  222  A    between atoms: _544  and  _546
REMARK  223  A    between atoms: _546  and  _547
REMARK  224  A    between atoms: _549  and  _551
REMARK  225  A    between atoms: _551  and  _552
REMARK  226  A    between atoms: _551  and  _554
REMARK  227  A    between atoms: _554  and  _555
REMARK  228  A    between atoms: _555  and  _556
REMARK  229  A    between atoms: _556  and  _557
REMARK                            x       y       z     vdW  Elec       q    Type
REMARK                         _______ _______ _______ _____ _____    ______ ____
ROOT
ATOM      1  C   ALA A   6      10.342  -2.843  -3.858  0.00  0.00    +0.241 C 
ATOM      2  N   ASP A   7       9.458  -3.676  -3.312  0.00  0.00    -0.297 N 
ATOM      3  H   ASP A   7       9.344  -4.633  -3.703  0.00  0.00    +0.150 HD
ATOM      4  O   ALA A   6      10.472  -1.668  -3.485  0.00  0.00    -0.273 OA
ENDROOT
BRANCH   1   5
ATOM      5  CA  ALA A   6      11.187  -3.404  -5.003  0.00  0.00    +0.149 C 
ATOM      6  CB  ALA A   6      12.639  -3.608  -4.542  0.00  0.00    +0.031 C 
BRANCH   5   8
ATOM      7  C   GLY A   5      10.390  -2.876  -7.233  0.00  0.00    +0.243 C 
ATOM      8  N   ALA A   6      11.142  -2.545  -6.188  0.00  0.00    -0.297 N 
ATOM      9  H   ALA A   6      11.703  -1.669  -6.212  0.00  0.00    +0.150 HD
ATOM     10  O   GLY A   5       9.630  -3.837  -7.210  0.00  0.00    -0.273 OA
BRANCH   7  11
ATOM     11  CA  GLY A   5      10.456  -1.979  -8.461  0.00  0.00    +0.176 C 
BRANCH  11  14
ATOM     12  C   THR A   4      10.742   0.310  -7.700  0.00  0.00    +0.243 C 
ATOM     13  O   THR A   4       9.553   0.414  -7.376  0.00  0.00    -0.273 OA
ATOM     14  N   GLY A   5      11.256  -0.790  -8.246  0.00  0.00    -0.295 N 
ATOM     15  H   GLY A   5      12.258  -0.796  -8.526  0.00  0.00    +0.150 HD
BRANCH  12  16
ATOM     16  CA  THR A   4      11.701   1.487  -7.519  0.00  0.00    +0.176 C 
BRANCH  16  19
ATOM     17  C   ASP A   3      13.644   0.340  -6.644  0.00  0.00    +0.241 C 
ATOM     18  O   ASP A   3      12.998  -0.092  -5.678  0.00  0.00    -0.273 OA
ATOM     19  N   THR A   4      13.101   1.084  -7.595  0.00  0.00    -0.295 N 
ATOM     20  H   THR A   4      13.679   1.385  -8.406  0.00  0.00    +0.150 HD
BRANCH  17  21
ATOM     21  CA  ASP A   3      15.125   0.042  -6.813  0.00  0.00    +0.160 C 
BRANCH  21  23
ATOM     22  C   LEU A   2      16.937   1.632  -6.637  0.00  0.00    +0.241 C 
ATOM     23  N   ASP A   3      15.981   0.931  -6.048  0.00  0.00    -0.297 N 
ATOM     24  H   ASP A   3      15.841   1.018  -5.021  0.00  0.00    +0.150 HD
ATOM     25  O   LEU A   2      16.983   1.812  -7.854  0.00  0.00    -0.273 OA
BRANCH  22  26
ATOM     26  CA  LEU A   2      17.986   2.241  -5.722  0.00  0.00    +0.149 C 
BRANCH  26  29
ATOM     27  C   LEU A   1      19.433   0.311  -5.410  0.00  0.00    +0.238 C 
ATOM     28  O   LEU A   1      18.661  -0.195  -4.607  0.00  0.00    -0.274 OA
ATOM     29  N   LEU A   2      19.229   1.511  -5.950  0.00  0.00    -0.297 N 
ATOM     30  H   LEU A   2      19.969   1.936  -6.545  0.00  0.00    +0.150 HD
BRANCH  27  31
ATOM     31  CA  LEU A   1      20.707  -0.428  -5.802  0.00  0.00    +0.145 C 
BRANCH  31  32
ATOM     32  N   LEU A   1      21.460  -0.815  -4.626  0.00  0.00    -0.238 NA
ATOM     33  H   LEU A   1      21.234  -1.719  -4.165  0.00  0.00    +0.142 HD
ENDBRANCH  31  32
BRANCH  31  34
ATOM     34  CB  LEU A   1      20.383  -1.682  -6.607  0.00  0.00    +0.026 C 
BRANCH  34  35
ATOM     35  CG  LEU A   1      19.638  -1.646  -7.937  0.00  0.00    +0.002 C 
ATOM     36  CD2 LEU A   1      19.281  -3.079  -8.336  0.00  0.00    +0.000 C 
ATOM     37  CD1 LEU A   1      20.465  -0.987  -9.000  0.00  0.00    +0.000 C 
ENDBRANCH  34  35
ENDBRANCH  31  34
ENDBRANCH  27  31
ENDBRANCH  26  29
BRANCH  26  38
ATOM     38  CB  LEU A   2      18.156   3.748  -5.998  0.00  0.00    +0.029 C 
BRANCH  38  39
ATOM     39  CG  LEU A   2      19.191   4.437  -5.100  0.00  0.00    +0.002 C 
ATOM     40  CD2 LEU A   2      18.787   4.286  -3.645  0.00  0.00    +0.000 C 
ATOM     41  CD1 LEU A   2      19.379   5.921  -5.466  0.00  0.00    +0.000 C 
ENDBRANCH  38  39
ENDBRANCH  26  38
ENDBRANCH  22  26
ENDBRANCH  21  23
BRANCH  21  42
ATOM     42  CB  ASP A   3      15.380  -1.410  -6.435  0.00  0.00    +0.143 C 
BRANCH  42  43
ATOM     43  CG  ASP A   3      14.693  -2.366  -7.383  0.00  0.00    +0.367 C 
ATOM     44  OD2 ASP A   3      14.838  -3.585  -7.207  0.00  0.00    -0.246 OA
ATOM     45  OD1 ASP A   3      13.955  -1.890  -8.279  0.00  0.00    -0.246 OA
ENDBRANCH  42  43
ENDBRANCH  21  42
ENDBRANCH  17  21
ENDBRANCH  16  19
BRANCH  16  46
ATOM     46  CB  THR A   4      11.381   2.522  -8.571  0.00  0.00    +0.137 C 
ATOM     47  CG2 THR A   4      12.250   3.767  -8.380  0.00  0.00    +0.034 C 
BRANCH  46  48
ATOM     48  OG1 THR A   4      11.632   1.960  -9.866  0.00  0.00    -0.382 OA
ATOM     49  HG1 THR A   4      11.060   1.163  -9.995  0.00  0.00    +0.210 HD
ENDBRANCH  46  48
ENDBRANCH  16  46
ENDBRANCH  12  16
ENDBRANCH  11  14
ENDBRANCH   7  11
ENDBRANCH   5   8
ENDBRANCH   1   5
BRANCH   2  50
ATOM     50  CA  ASP A   7       8.645  -3.261  -2.167  0.00  0.00    +0.160 C 
BRANCH  50  51
ATOM     51  C   ASP A   7       9.471  -3.154  -0.886  0.00  0.00    +0.241 C 
ATOM     52  O   ASP A   7       9.276  -2.249  -0.074  0.00  0.00    -0.273 OA
ATOM     53  N   ASP A   8      10.381  -4.101  -0.724  0.00  0.00    -0.297 N 
ATOM     54  H   ASP A   8      10.550  -4.762  -1.509  0.00  0.00    +0.150 HD
BRANCH  53  55
ATOM     55  CA  ASP A   8      11.155  -4.264   0.493  0.00  0.00    +0.160 C 
BRANCH  55  56
ATOM     56  C   ASP A   8      12.613  -3.938   0.239  0.00  0.00    +0.241 C 
ATOM     57  N   THR A   9      13.379  -3.851   1.322  0.00  0.00    -0.295 N 
ATOM     58  H   THR A   9      12.928  -3.905   2.258  0.00  0.00    +0.150 HD
ATOM     59  O   ASP A   8      13.022  -3.771  -0.902  0.00  0.00    -0.273 OA
BRANCH  57  60
ATOM     60  CA  THR A   9      14.816  -3.684   1.251  0.00  0.00    +0.176 C 
BRANCH  60  61
ATOM     61  C   THR A   9      15.494  -5.004   1.607  0.00  0.00    +0.243 C 
ATOM     62  O   THR A   9      15.247  -5.573   2.669  0.00  0.00    -0.273 OA
ATOM     63  N   VAL A  10      16.342  -5.485   0.698  0.00  0.00    -0.297 N 
ATOM     64  H   VAL A  10      16.565  -4.901  -0.133  0.00  0.00    +0.150 HD
BRANCH  63  65
ATOM     65  CA  VAL A  10      16.969  -6.792   0.820  0.00  0.00    +0.149 C 
BRANCH  65  66
ATOM     66  C   VAL A  10      18.479  -6.665   0.720  0.00  0.00    +0.241 C 
ATOM     67  N   LEU A  11      19.191  -7.207   1.710  0.00  0.00    -0.298 N 
ATOM     68  H   LEU A  11      18.713  -7.805   2.414  0.00  0.00    +0.150 HD
ATOM     69  O   VAL A  10      18.987  -6.117  -0.257  0.00  0.00    -0.273 OA
BRANCH  67  70
ATOM     70  CA  LEU A  11      20.626  -6.977   1.824  0.00  0.00    +0.137 C 
BRANCH  70  71
ATOM     71  C   LEU A  11      21.483  -8.233   1.801  0.00  0.00    +0.227 C 
ATOM     72  O   LEU A  11      21.071  -9.304   2.255  0.00  0.00    -0.286 OA
ENDBRANCH  70  71
BRANCH  70  73
ATOM     73  CB  LEU A  11      20.926  -6.251   3.139  0.00  0.00    +0.028 C 
BRANCH  73  74
ATOM     74  CG  LEU A  11      20.165  -4.961   3.431  0.00  0.00    +0.002 C 
ATOM     75  CD2 LEU A  11      20.479  -4.486   4.835  0.00  0.00    +0.000 C 
ATOM     76  CD1 LEU A  11      20.522  -3.914   2.413  0.00  0.00    +0.000 C 
ENDBRANCH  73  74
ENDBRANCH  70  73
ENDBRANCH  67  70
ENDBRANCH  65  66
BRANCH  65  77
ATOM     77  CB  VAL A  10      16.487  -7.760  -0.270  0.00  0.00    +0.027 C 
ATOM     78  CG2 VAL A  10      17.031  -9.151  -0.012  0.00  0.00    +0.002 C 
ATOM     79  CG1 VAL A  10      14.968  -7.768  -0.332  0.00  0.00    +0.002 C 
ENDBRANCH  65  77
ENDBRANCH  63  65
ENDBRANCH  60  61
BRANCH  60  80
ATOM     80  CB  THR A   9      15.261  -2.540   2.169  0.00  0.00    +0.137 C 
ATOM     81  CG2 THR A   9      16.786  -2.435   2.213  0.00  0.00    +0.034 C 
BRANCH  80  82
ATOM     82  OG1 THR A   9      14.703  -1.320   1.656  0.00  0.00    -0.382 OA
ATOM     83  HG1 THR A   9      13.715  -1.388   1.647  0.00  0.00    +0.210 HD
ENDBRANCH  80  82
ENDBRANCH  60  80
ENDBRANCH  57  60
ENDBRANCH  55  56
BRANCH  55  84
ATOM     84  CB  ASP A   8      11.038  -5.695   1.014  0.00  0.00    +0.143 C 
BRANCH  84  85
ATOM     85  CG  ASP A   8       9.610  -6.121   1.190  0.00  0.00    +0.367 C 
ATOM     86  OD2 ASP A   8       8.843  -5.341   1.782  0.00  0.00    -0.246 OA
ATOM     87  OD1 ASP A   8       9.240  -7.200   0.683  0.00  0.00    -0.246 OA
ENDBRANCH  84  85
ENDBRANCH  55  84
ENDBRANCH  53  55
ENDBRANCH  50  51
BRANCH  50  88
ATOM     88  CB  ASP A   7       7.488  -4.230  -1.939  0.00  0.00    +0.143 C 
BRANCH  88  89
ATOM     89  CG  ASP A   7       6.485  -4.218  -3.064  0.00  0.00    +0.367 C 
ATOM     90  OD2 ASP A   7       5.584  -5.091  -3.059  0.00  0.00    -0.246 OA
ATOM     91  OD1 ASP A   7       6.575  -3.319  -3.931  0.00  0.00    -0.246 OA
ENDBRANCH  88  89
ENDBRANCH  50  88
ENDBRANCH   2  50
TORSDOF 39
REMARK  Name = ../refined-set-2016/4qgi/4qgi_pocket.pdb
REMARK  229 active torsions:
REMARK  status: ('A' for Active; 'I' for Inactive)
REMARK    1  A    between atoms: _1  and  _3
REMARK    2  A    between atoms: _3  and  _4
REMARK    3  A    between atoms: _3  and  _6
REMARK    4  A    between atoms: _6  and  _7
REMARK    5  A    between atoms: _7  and  _8
REMARK    6  A    between atoms: _8  and  _9
REMARK    7  A    between atoms: _18  and  _20
REMARK    8  A    between atoms: _20  and  _21
REMARK    9  A    between atoms: _20  and  _23
REMARK   10  A    between atoms: _23  and  _24
REMARK   11  A    between atoms: _27  and  _29
REMARK   12  A    between atoms: _29  and  _30
REMARK   13  A    between atoms: _29  and  _32
REMARK   14  A    between atoms: _32  and  _33
REMARK   15  A    between atoms: _36  and  _38
REMARK   16  A    between atoms: _38  and  _39
REMARK   17  A    between atoms: _38  and  _41
REMARK   18  A    between atoms: _41  and  _42
REMARK   19  A    between atoms: _45  and  _47
REMARK   20  A    between atoms: _47  and  _48
REMARK   21  A    between atoms: _47  and  _50
REMARK   22  A    between atoms: _50  and  _51
REMARK   23  A    between atoms: _54  and  _56
REMARK   24  A    between atoms: _56  and  _57
REMARK   25  A    between atoms: _59  and  _61
REMARK   26  A    between atoms: _61  and  _62
REMARK   27  A    between atoms: _65  and  _67
REMARK   28  A    between atoms: _67  and  _68
REMARK   29  A    between atoms: _67  and  _70
REMARK   30  A    between atoms: _70  and  _71
REMARK   31  A    between atoms: _74  and  _76
REMARK   32  A    between atoms: _76  and  _77
REMARK   33  A    between atoms: _76  and  _79
REMARK   34  A    between atoms: _79  and  _80
REMARK   35  A    between atoms: _83  and  _85
REMARK   36  A    between atoms: _85  and  _86
REMARK   37  A    between atoms: _85  and  _88
REMARK   38  A    between atoms: _88  and  _89
REMARK   39  A    between atoms: _92  and  _94
REMARK   40  A    between atoms: _94  and  _95
REMARK   41  A    between atoms: _94  and  _97
REMARK   42  A    between atoms: _100  and  _102
REMARK   43  A    between atoms: _102  and  _103
REMARK   44  A    between atoms: _102  and  _105
REMARK   45  A    between atoms: _105  and  _106
REMARK   46  A    between atoms: _106  and  _107
REMARK   47  A    between atoms: _107  and  _108
REMARK   48  A    between atoms: _108  and  _109
REMARK   49  A    between atoms: _113  and  _115
REMARK   50  A    between atoms: _115  and  _116
REMARK   51  A    between atoms: _115  and  _118
REMARK   52  A    between atoms: _118  and  _119
REMARK   53  A    between atoms: _119  and  _120
REMARK   54  A    between atoms: _122  and  _124
REMARK   55  A    between atoms: _124  and  _125
REMARK   56  A    between atoms: _124  and  _127
REMARK   57  A    between atoms: _127  and  _128
REMARK   58  A    between atoms: _131  and  _133
REMARK   59  A    between atoms: _133  and  _134
REMARK   60  A    between atoms: _133  and  _136
REMARK   61  A    between atoms: _136  and  _137
REMARK   62  A    between atoms: _140  and  _142
REMARK   63  A    between atoms: _142  and  _143
REMARK   64  A    between atoms: _145  and  _147
REMARK   65  A    between atoms: _147  and  _148
REMARK   66  A    between atoms: _147  and  _150
REMARK   67  A    between atoms: _150  and  _151
REMARK   68  A    between atoms: _154  and  _156
REMARK   69  A    between atoms: _156  and  _157
REMARK   70  A    between atoms: _159  and  _161
REMARK   71  A    between atoms: _161  and  _162
REMARK   72  A    between atoms: _164  and  _166
REMARK   73  A    between atoms: _166  and  _167
REMARK   74  A    between atoms: _166  and  _169
REMARK   75  A    between atoms: _169  and  _170
REMARK   76  A    between atoms: _176  and  _178
REMARK   77  A    between atoms: _178  and  _179
REMARK   78  A    between atoms: _178  and  _181
REMARK   79  A    between atoms: _181  and  _182
REMARK   80  A    between atoms: _185  and  _187
REMARK   81  A    between atoms: _187  and  _188
REMARK   82  A    between atoms: _187  and  _190
REMARK   83  A    between atoms: _193  and  _195
REMARK   84  A    between atoms: _195  and  _196
REMARK   85  A    between atoms: _195  and  _198
REMARK   86  A    between atoms: _198  and  _199
REMARK   87  A    between atoms: _203  and  _204
REMARK   88  A    between atoms: _209  and  _211
REMARK   89  A    between atoms: _211  and  _212
REMARK   90  A    between atoms: _211  and  _214
REMARK   91  A    between atoms: _214  and  _215
REMARK   92  A    between atoms: _219  and  _220
REMARK   93  A    between atoms: _225  and  _227
REMARK   94  A    between atoms: _227  and  _228
REMARK   95  A    between atoms: _227  and  _230
REMARK   96  A    between atoms: _233  and  _235
REMARK   97  A    between atoms: _235  and  _236
REMARK   98  A    between atoms: _235  and  _238
REMARK   99  A    between atoms: _238  and  _239
REMARK  100  A    between atoms: _244  and  _246
REMARK  101  A    between atoms: _246  and  _247
REMARK  102  A    between atoms: _246  and  _249
REMARK  103  A    between atoms: _249  and  _250
REMARK  104  A    between atoms: _253  and  _255
REMARK  105  A    between atoms: _255  and  _256
REMARK  106  A    between atoms: _255  and  _258
REMARK  107  A    between atoms: _258  and  _259
REMARK  108  A    between atoms: _262  and  _264
REMARK  109  A    between atoms: _264  and  _265
REMARK  110  A    between atoms: _267  and  _269
REMARK  111  A    between atoms: _269  and  _270
REMARK  112  A    between atoms: _269  and  _272
REMARK  113  A    between atoms: _272  and  _273
REMARK  114  A    between atoms: _273  and  _274
REMARK  115  A    between atoms: _274  and  _275
REMARK  116  A    between atoms: _284  and  _286
REMARK  117  A    between atoms: _286  and  _287
REMARK  118  A    between atoms: _286  and  _289
REMARK  119  A    between atoms: _289  and  _290
REMARK  120  A    between atoms: _295  and  _297
REMARK  121  A    between atoms: _297  and  _298
REMARK  122  A    between atoms: _297  and  _300
REMARK  123  A    between atoms: _300  and  _301
REMARK  124  A    between atoms: _301  and  _302
REMARK  125  A    between atoms: _302  and  _303
REMARK  126  A    between atoms: _312  and  _314
REMARK  127  A    between atoms: _314  and  _315
REMARK  128  A    between atoms: _314  and  _317
REMARK  129  A    between atoms: _317  and  _318
REMARK  130  A    between atoms: _321  and  _323
REMARK  131  A    between atoms: _323  and  _324
REMARK  132  A    between atoms: _323  and  _326
REMARK  133  A    between atoms: _326  and  _327
REMARK  134  A    between atoms: _330  and  _332
REMARK  135  A    between atoms: _332  and  _333
REMARK  136  A    between atoms: _332  and  _335
REMARK  137  A    between atoms: _335  and  _336
REMARK  138  A    between atoms: _339  and  _341
REMARK  139  A    between atoms: _341  and  _342
REMARK  140  A    between atoms: _341  and  _344
REMARK  141  A    between atoms: _344  and  _345
REMARK  142  A    between atoms: _348  and  _350
REMARK  143  A    between atoms: _350  and  _351
REMARK  144  A    between atoms: _353  and  _355
REMARK  145  A    between atoms: _355  and  _356
REMARK  146  A    between atoms: _359  and  _361
REMARK  147  A    between atoms: _361  and  _362
REMARK  148  A    between atoms: _361  and  _364
REMARK  149  A    between atoms: _364  and  _365
REMARK  150  A    between atoms: _368  and  _370
REMARK  151  A    between atoms: _370  and  _371
REMARK  152  A    between atoms: _370  and  _373
REMARK  153  A    between atoms: _373  and  _374
REMARK  154  A    between atoms: _377  and  _379
REMARK  155  A    between atoms: _379  and  _380
REMARK  156  A    between atoms: _379  and  _382
REMARK  157  A    between atoms: _382  and  _383
REMARK  158  A    between atoms: _386  and  _388
REMARK  159  A    between atoms: _388  and  _389
REMARK  160  A    between atoms: _388  and  _391
REMARK  161  A    between atoms: _394  and  _396
REMARK  162  A    between atoms: _396  and  _397
REMARK  163  A    between atoms: _396  and  _399
REMARK  164  A    between atoms: _399  and  _400
REMARK  165  A    between atoms: _403  and  _405
REMARK  166  A    between atoms: _405  and  _406
REMARK  167  A    between atoms: _405  and  _408
REMARK  168  A    between atoms: _408  and  _409
REMARK  169  A    between atoms: _409  and  _410
REMARK  170  A    between atoms: _410  and  _411
REMARK  171  A    between atoms: _411  and  _412
REMARK  172  A    between atoms: _416  and  _418
REMARK  173  A    between atoms: _418  and  _419
REMARK  174  A    between atoms: _418  and  _421
REMARK  175  A    between atoms: _421  and  _422
REMARK  176  A    between atoms: _425  and  _427
REMARK  177  A    between atoms: _427  and  _428
REMARK  178  A    between atoms: _427  and  _430
REMARK  179  A    between atoms: _430  and  _431
REMARK  180  A    between atoms: _434  and  _436
REMARK  181  A    between atoms: _436  and  _437
REMARK  182  A    between atoms: _439  and  _441
REMARK  183  A    between atoms: _441  and  _442
REMARK  184  A    between atoms: _441  and  _444
REMARK  185  A    between atoms: _444  and  _445
REMARK  186  A    between atoms: _448  and  _450
REMARK  187  A    between atoms: _450  and  _451
REMARK  188  A    between atoms: _453  and  _455
REMARK  189  A    between atoms: _455  and  _456
REMARK  190  A    between atoms: _458  and  _460
REMARK  191  A    between atoms: _460  and  _461
REMARK  192  A    between atoms: _460  and  _463
REMARK  193  A    between atoms: _463  and  _464
REMARK  194  A    between atoms: _467  and  _469
REMARK  195  A    between atoms: _469  and  _470
REMARK  196  A    between atoms: _469  and  _472
REMARK  197  A    between atoms: _475  and  _477
REMARK  198  A    between atoms: _477  and  _478
REMARK  199  A    between atoms: _477  and  _480
REMARK  200  A    between atoms: _480  and  _481
REMARK  201  A    between atoms: _485  and  _486
REMARK  202  A    between atoms: _491  and  _493
REMARK  203  A    between atoms: _493  and  _494
REMARK  204  A    between atoms: _493  and  _496
REMARK  205  A    between atoms: _496  and  _497
REMARK  206  A    between atoms: _501  and  _502
REMARK  207  A    between atoms: _507  and  _509
REMARK  208  A    between atoms: _509  and  _510
REMARK  209  A    between atoms: _509  and  _512
REMARK  210  A    between atoms: _515  and  _517
REMARK  211  A    between atoms: _517  and  _518
REMARK  212  A    between atoms: _517  and  _520
REMARK  213  A    between atoms: _520  and  _521
REMARK  214  A    between atoms: _526  and  _528
REMARK  215  A    between atoms: _528  and  _529
REMARK  216  A    between atoms: _528  and  _531
REMARK  217  A    between atoms: _531  and  _532
REMARK  218  A    between atoms: _535  and  _537
REMARK  219  A    between atoms: _537  and  _538
REMARK  220  A    between atoms: _537  and  _540
REMARK  221  A    between atoms: _540  and  _541
REMARK  222  A    between atoms: _544  and  _546
REMARK  223  A    between atoms: _546  and  _547
REMARK  224  A    between atoms: _549  and  _551
REMARK  225  A    between atoms: _551  and  _552
REMARK  226  A    between atoms: _551  and  _554
REMARK  227  A    between atoms: _554  and  _555
REMARK  228  A    between atoms: _555  and  _556
REMARK  229  A    between atoms: _556  and  _557
REMARK                            x       y       z     vdW  Elec       q    Type
REMARK                         _______ _______ _______ _____ _____    ______ ____
ROOT
ATOM      1  CG  LYS A   1       9.315 -12.342   5.689  0.00  0.00    -0.000 C 
ENDROOT
BRANCH   1   2
ATOM      2  CB  LYS A   1      10.497 -12.980   6.414  0.00  0.00    +0.025 C 
BRANCH   2   3
ATOM      3  CA  LYS A   1      10.487 -14.510   6.403  0.00  0.00    +0.133 C 
BRANCH   3   4
ATOM      4  N   LYS A   1      11.540 -15.052   7.259  0.00  0.00    -0.239 NA
ATOM      5  H   LYS A   1      12.473 -15.250   6.844  0.00  0.00    +0.142 HD
ENDBRANCH   3   4
BRANCH   3   6
ATOM      6  C   LYS A   1      10.709 -15.032   4.991  0.00  0.00    +0.224 C 
ATOM      7  O   LYS A   1      11.825 -15.482   4.658  0.00  0.00    -0.287 OA
ENDBRANCH   3   6
ENDBRANCH   2   3
ENDBRANCH   1   2
BRANCH   1   8
ATOM      8  CD  LYS A   1       9.428 -10.827   5.622  0.00  0.00    -0.024 C 
BRANCH   8   9
ATOM      9  CE  LYS A   1       8.202 -10.213   4.973  0.00  0.00    -0.086 C 
BRANCH   9  10
ATOM     10  NZ  LYS A   1       8.348  -8.746   4.852  0.00  0.00    +0.380 N 
ATOM     11  HZ1 LYS A   1       8.469  -8.332   5.798  0.00  0.00    -0.089 HD
ATOM     12  HZ2 LYS A   1       7.497  -8.350   4.405  0.00  0.00    -0.089 HD
ATOM     13  HZ3 LYS A   1       9.181  -8.529   4.268  0.00  0.00    -0.089 HD
ENDBRANCH   9  10
ENDBRANCH   8   9
ENDBRANCH   1   8
TORSDOF 7
REMARK  Name = ../refined-set-2016/4qgi/4qgi_pocket.pdb
REMARK  229 active torsions:
REMARK  status: ('A' for Active; 'I' for Inactive)
REMARK    1  A    between atoms: _1  and  _3
REMARK    2  A    between atoms: _3  and  _4
REMARK    3  A    between atoms: _3  and  _6
REMARK    4  A    between atoms: _6  and  _7
REMARK    5  A    between atoms: _7  and  _8
REMARK    6  A    between atoms: _8  and  _9
REMARK    7  A    between atoms: _18  and  _20
REMARK    8  A    between atoms: _20  and  _21
REMARK    9  A    between atoms: _20  and  _23
REMARK   10  A    between atoms: _23  and  _24
REMARK   11  A    between atoms: _27  and  _29
REMARK   12  A    between atoms: _29  and  _30
REMARK   13  A    between atoms: _29  and  _32
REMARK   14  A    between atoms: _32  and  _33
REMARK   15  A    between atoms: _36  and  _38
REMARK   16  A    between atoms: _38  and  _39
REMARK   17  A    between atoms: _38  and  _41
REMARK   18  A    between atoms: _41  and  _42
REMARK   19  A    between atoms: _45  and  _47
REMARK   20  A    between atoms: _47  and  _48
REMARK   21  A    between atoms: _47  and  _50
REMARK   22  A    between atoms: _50  and  _51
REMARK   23  A    between atoms: _54  and  _56
REMARK   24  A    between atoms: _56  and  _57
REMARK   25  A    between atoms: _59  and  _61
REMARK   26  A    between atoms: _61  and  _62
REMARK   27  A    between atoms: _65  and  _67
REMARK   28  A    between atoms: _67  and  _68
REMARK   29  A    between atoms: _67  and  _70
REMARK   30  A    between atoms: _70  and  _71
REMARK   31  A    between atoms: _74  and  _76
REMARK   32  A    between atoms: _76  and  _77
REMARK   33  A    between atoms: _76  and  _79
REMARK   34  A    between atoms: _79  and  _80
REMARK   35  A    between atoms: _83  and  _85
REMARK   36  A    between atoms: _85  and  _86
REMARK   37  A    between atoms: _85  and  _88
REMARK   38  A    between atoms: _88  and  _89
REMARK   39  A    between atoms: _92  and  _94
REMARK   40  A    between atoms: _94  and  _95
REMARK   41  A    between atoms: _94  and  _97
REMARK   42  A    between atoms: _100  and  _102
REMARK   43  A    between atoms: _102  and  _103
REMARK   44  A    between atoms: _102  and  _105
REMARK   45  A    between atoms: _105  and  _106
REMARK   46  A    between atoms: _106  and  _107
REMARK   47  A    between atoms: _107  and  _108
REMARK   48  A    between atoms: _108  and  _109
REMARK   49  A    between atoms: _113  and  _115
REMARK   50  A    between atoms: _115  and  _116
REMARK   51  A    between atoms: _115  and  _118
REMARK   52  A    between atoms: _118  and  _119
REMARK   53  A    between atoms: _119  and  _120
REMARK   54  A    between atoms: _122  and  _124
REMARK   55  A    between atoms: _124  and  _125
REMARK   56  A    between atoms: _124  and  _127
REMARK   57  A    between atoms: _127  and  _128
REMARK   58  A    between atoms: _131  and  _133
REMARK   59  A    between atoms: _133  and  _134
REMARK   60  A    between atoms: _133  and  _136
REMARK   61  A    between atoms: _136  and  _137
REMARK   62  A    between atoms: _140  and  _142
REMARK   63  A    between atoms: _142  and  _143
REMARK   64  A    between atoms: _145  and  _147
REMARK   65  A    between atoms: _147  and  _148
REMARK   66  A    between atoms: _147  and  _150
REMARK   67  A    between atoms: _150  and  _151
REMARK   68  A    between atoms: _154  and  _156
REMARK   69  A    between atoms: _156  and  _157
REMARK   70  A    between atoms: _159  and  _161
REMARK   71  A    between atoms: _161  and  _162
REMARK   72  A    between atoms: _164  and  _166
REMARK   73  A    between atoms: _166  and  _167
REMARK   74  A    between atoms: _166  and  _169
REMARK   75  A    between atoms: _169  and  _170
REMARK   76  A    between atoms: _176  and  _178
REMARK   77  A    between atoms: _178  and  _179
REMARK   78  A    between atoms: _178  and  _181
REMARK   79  A    between atoms: _181  and  _182
REMARK   80  A    between atoms: _185  and  _187
REMARK   81  A    between atoms: _187  and  _188
REMARK   82  A    between atoms: _187  and  _190
REMARK   83  A    between atoms: _193  and  _195
REMARK   84  A    between atoms: _195  and  _196
REMARK   85  A    between atoms: _195  and  _198
REMARK   86  A    between atoms: _198  and  _199
REMARK   87  A    between atoms: _203  and  _204
REMARK   88  A    between atoms: _209  and  _211
REMARK   89  A    between atoms: _211  and  _212
REMARK   90  A    between atoms: _211  and  _214
REMARK   91  A    between atoms: _214  and  _215
REMARK   92  A    between atoms: _219  and  _220
REMARK   93  A    between atoms: _225  and  _227
REMARK   94  A    between atoms: _227  and  _228
REMARK   95  A    between atoms: _227  and  _230
REMARK   96  A    between atoms: _233  and  _235
REMARK   97  A    between atoms: _235  and  _236
REMARK   98  A    between atoms: _235  and  _238
REMARK   99  A    between atoms: _238  and  _239
REMARK  100  A    between atoms: _244  and  _246
REMARK  101  A    between atoms: _246  and  _247
REMARK  102  A    between atoms: _246  and  _249
REMARK  103  A    between atoms: _249  and  _250
REMARK  104  A    between atoms: _253  and  _255
REMARK  105  A    between atoms: _255  and  _256
REMARK  106  A    between atoms: _255  and  _258
REMARK  107  A    between atoms: _258  and  _259
REMARK  108  A    between atoms: _262  and  _264
REMARK  109  A    between atoms: _264  and  _265
REMARK  110  A    between atoms: _267  and  _269
REMARK  111  A    between atoms: _269  and  _270
REMARK  112  A    between atoms: _269  and  _272
REMARK  113  A    between atoms: _272  and  _273
REMARK  114  A    between atoms: _273  and  _274
REMARK  115  A    between atoms: _274  and  _275
REMARK  116  A    between atoms: _284  and  _286
REMARK  117  A    between atoms: _286  and  _287
REMARK  118  A    between atoms: _286  and  _289
REMARK  119  A    between atoms: _289  and  _290
REMARK  120  A    between atoms: _295  and  _297
REMARK  121  A    between atoms: _297  and  _298
REMARK  122  A    between atoms: _297  and  _300
REMARK  123  A    between atoms: _300  and  _301
REMARK  124  A    between atoms: _301  and  _302
REMARK  125  A    between atoms: _302  and  _303
REMARK  126  A    between atoms: _312  and  _314
REMARK  127  A    between atoms: _314  and  _315
REMARK  128  A    between atoms: _314  and  _317
REMARK  129  A    between atoms: _317  and  _318
REMARK  130  A    between atoms: _321  and  _323
REMARK  131  A    between atoms: _323  and  _324
REMARK  132  A    between atoms: _323  and  _326
REMARK  133  A    between atoms: _326  and  _327
REMARK  134  A    between atoms: _330  and  _332
REMARK  135  A    between atoms: _332  and  _333
REMARK  136  A    between atoms: _332  and  _335
REMARK  137  A    between atoms: _335  and  _336
REMARK  138  A    between atoms: _339  and  _341
REMARK  139  A    between atoms: _341  and  _342
REMARK  140  A    between atoms: _341  and  _344
REMARK  141  A    between atoms: _344  and  _345
REMARK  142  A    between atoms: _348  and  _350
REMARK  143  A    between atoms: _350  and  _351
REMARK  144  A    between atoms: _353  and  _355
REMARK  145  A    between atoms: _355  and  _356
REMARK  146  A    between atoms: _359  and  _361
REMARK  147  A    between atoms: _361  and  _362
REMARK  148  A    between atoms: _361  and  _364
REMARK  149  A    between atoms: _364  and  _365
REMARK  150  A    between atoms: _368  and  _370
REMARK  151  A    between atoms: _370  and  _371
REMARK  152  A    between atoms: _370  and  _373
REMARK  153  A    between atoms: _373  and  _374
REMARK  154  A    between atoms: _377  and  _379
REMARK  155  A    between atoms: _379  and  _380
REMARK  156  A    between atoms: _379  and  _382
REMARK  157  A    between atoms: _382  and  _383
REMARK  158  A    between atoms: _386  and  _388
REMARK  159  A    between atoms: _388  and  _389
REMARK  160  A    between atoms: _388  and  _391
REMARK  161  A    between atoms: _394  and  _396
REMARK  162  A    between atoms: _396  and  _397
REMARK  163  A    between atoms: _396  and  _399
REMARK  164  A    between atoms: _399  and  _400
REMARK  165  A    between atoms: _403  and  _405
REMARK  166  A    between atoms: _405  and  _406
REMARK  167  A    between atoms: _405  and  _408
REMARK  168  A    between atoms: _408  and  _409
REMARK  169  A    between atoms: _409  and  _410
REMARK  170  A    between atoms: _410  and  _411
REMARK  171  A    between atoms: _411  and  _412
REMARK  172  A    between atoms: _416  and  _418
REMARK  173  A    between atoms: _418  and  _419
REMARK  174  A    between atoms: _418  and  _421
REMARK  175  A    between atoms: _421  and  _422
REMARK  176  A    between atoms: _425  and  _427
REMARK  177  A    between atoms: _427  and  _428
REMARK  178  A    between atoms: _427  and  _430
REMARK  179  A    between atoms: _430  and  _431
REMARK  180  A    between atoms: _434  and  _436
REMARK  181  A    between atoms: _436  and  _437
REMARK  182  A    between atoms: _439  and  _441
REMARK  183  A    between atoms: _441  and  _442
REMARK  184  A    between atoms: _441  and  _444
REMARK  185  A    between atoms: _444  and  _445
REMARK  186  A    between atoms: _448  and  _450
REMARK  187  A    between atoms: _450  and  _451
REMARK  188  A    between atoms: _453  and  _455
REMARK  189  A    between atoms: _455  and  _456
REMARK  190  A    between atoms: _458  and  _460
REMARK  191  A    between atoms: _460  and  _461
REMARK  192  A    between atoms: _460  and  _463
REMARK  193  A    between atoms: _463  and  _464
REMARK  194  A    between atoms: _467  and  _469
REMARK  195  A    between atoms: _469  and  _470
REMARK  196  A    between atoms: _469  and  _472
REMARK  197  A    between atoms: _475  and  _477
REMARK  198  A    between atoms: _477  and  _478
REMARK  199  A    between atoms: _477  and  _480
REMARK  200  A    between atoms: _480  and  _481
REMARK  201  A    between atoms: _485  and  _486
REMARK  202  A    between atoms: _491  and  _493
REMARK  203  A    between atoms: _493  and  _494
REMARK  204  A    between atoms: _493  and  _496
REMARK  205  A    between atoms: _496  and  _497
REMARK  206  A    between atoms: _501  and  _502
REMARK  207  A    between atoms: _507  and  _509
REMARK  208  A    between atoms: _509  and  _510
REMARK  209  A    between atoms: _509  and  _512
REMARK  210  A    between atoms: _515  and  _517
REMARK  211  A    between atoms: _517  and  _518
REMARK  212  A    between atoms: _517  and  _520
REMARK  213  A    between atoms: _520  and  _521
REMARK  214  A    between atoms: _526  and  _528
REMARK  215  A    between atoms: _528  and  _529
REMARK  216  A    between atoms: _528  and  _531
REMARK  217  A    between atoms: _531  and  _532
REMARK  218  A    between atoms: _535  and  _537
REMARK  219  A    between atoms: _537  and  _538
REMARK  220  A    between atoms: _537  and  _540
REMARK  221  A    between atoms: _540  and  _541
REMARK  222  A    between atoms: _544  and  _546
REMARK  223  A    between atoms: _546  and  _547
REMARK  224  A    between atoms: _549  and  _551
REMARK  225  A    between atoms: _551  and  _552
REMARK  226  A    between atoms: _551  and  _554
REMARK  227  A    between atoms: _554  and  _555
REMARK  228  A    between atoms: _555  and  _556
REMARK  229  A    between atoms: _556  and  _557
REMARK                            x       y       z     vdW  Elec       q    Type
REMARK                         _______ _______ _______ _____ _____    ______ ____
ROOT
ATOM      1  CA  GLY A   3      11.028 -11.936  -6.903  0.00  0.00    +0.176 C 
ENDROOT
BRANCH   1   4
ATOM      2  C   THR A   2       9.898 -12.457  -4.848  0.00  0.00    +0.243 C 
ATOM      3  O   THR A   2       9.668 -11.273  -4.625  0.00  0.00    -0.273 OA
ATOM      4  N   GLY A   3      10.553 -12.876  -5.919  0.00  0.00    -0.295 N 
ATOM      5  H   GLY A   3      10.727 -13.893  -6.052  0.00  0.00    +0.150 HD
BRANCH   2   6
ATOM      6  CA  THR A   2       9.359 -13.543  -3.943  0.00  0.00    +0.176 C 
BRANCH   6   9
ATOM      7  C   ILE A   1       9.713 -13.595  -1.585  0.00  0.00    +0.238 C 
ATOM      8  O   ILE A   1      10.436 -14.568  -1.747  0.00  0.00    -0.274 OA
ATOM      9  N   THR A   2       9.115 -13.005  -2.610  0.00  0.00    -0.295 N 
ATOM     10  H   THR A   2       8.492 -12.185  -2.468  0.00  0.00    +0.150 HD
BRANCH   7  11
ATOM     11  CA  ILE A   1       9.496 -13.028  -0.181  0.00  0.00    +0.145 C 
BRANCH  11  12
ATOM     12  CB  ILE A   1      10.235 -11.679  -0.016  0.00  0.00    +0.025 C 
ATOM     13  CG2 ILE A   1       9.939 -11.074   1.340  0.00  0.00    +0.002 C 
BRANCH  12  14
ATOM     14  CG1 ILE A   1      11.744 -11.839  -0.194  0.00  0.00    +0.002 C 
ATOM     15  CD1 ILE A   1      12.510 -10.527  -0.084  0.00  0.00    +0.000 C 
ENDBRANCH  12  14
ENDBRANCH  11  12
BRANCH  11  16
ATOM     16  N   ILE A   1       9.949 -14.018   0.799  0.00  0.00    -0.238 NA
ATOM     17  H   ILE A   1      10.889 -14.448   0.685  0.00  0.00    +0.142 HD
ENDBRANCH  11  16
ENDBRANCH   7  11
ENDBRANCH   6   9
BRANCH   6  18
ATOM     18  CB  THR A   2       8.068 -14.148  -4.556  0.00  0.00    +0.137 C 
ATOM     19  CG2 THR A   2       6.996 -13.100  -4.678  0.00  0.00    +0.034 C 
BRANCH  18  20
ATOM     20  OG1 THR A   2       8.344 -14.687  -5.857  0.00  0.00    -0.382 OA
ATOM     21  HG1 THR A   2       8.677 -13.966  -6.448  0.00  0.00    +0.210 HD
ENDBRANCH  18  20
ENDBRANCH   6  18
ENDBRANCH   2   6
ENDBRANCH   1   4
BRANCH   1  22
ATOM     22  C   GLY A   3      10.606 -12.537  -8.217  0.00  0.00    +0.243 C 
ATOM     23  O   GLY A   3       9.701 -13.383  -8.247  0.00  0.00    -0.273 OA
ATOM     24  N   ILE A   4      11.281 -12.167  -9.293  0.00  0.00    -0.297 N 
ATOM     25  H   ILE A   4      12.086 -11.514  -9.205  0.00  0.00    +0.150 HD
BRANCH  24  26
ATOM     26  CA  ILE A   4      10.894 -12.676 -10.597  0.00  0.00    +0.149 C 
BRANCH  26  27
ATOM     27  C   ILE A   4      11.144 -14.163 -10.730  0.00  0.00    +0.241 C 
ATOM     28  N   GLY A   5      12.137 -14.675 -10.008  0.00  0.00    -0.295 N 
ATOM     29  H   GLY A   5      12.708 -14.050  -9.404  0.00  0.00    +0.150 HD
ATOM     30  O   ILE A   4      10.409 -14.852 -11.440  0.00  0.00    -0.273 OA
BRANCH  28  31
ATOM     31  CA  GLY A   5      12.434 -16.100 -10.054  0.00  0.00    +0.176 C 
BRANCH  31  32
ATOM     32  C   GLY A   5      11.819 -16.987  -8.985  0.00  0.00    +0.243 C 
ATOM     33  N   GLY A   6      10.978 -16.430  -8.125  0.00  0.00    -0.296 N 
ATOM     34  H   GLY A   6      10.781 -15.410  -8.165  0.00  0.00    +0.150 HD
ATOM     35  O   GLY A   5      12.092 -18.182  -8.941  0.00  0.00    -0.273 OA
BRANCH  33  36
ATOM     36  CA  GLY A   6      10.337 -17.263  -7.128  0.00  0.00    +0.163 C 
BRANCH  36  37
ATOM     37  C   GLY A   6      10.680 -16.853  -5.708  0.00  0.00    +0.229 C 
ATOM     38  O   GLY A   6      11.232 -15.777  -5.488  0.00  0.00    -0.286 OA
ENDBRANCH  36  37
ENDBRANCH  33  36
ENDBRANCH  31  32
ENDBRANCH  28  31
ENDBRANCH  26  27
BRANCH  26  39
ATOM     39  CB  ILE A   4      11.621 -11.910 -11.710  0.00  0.00    +0.027 C 
ATOM     40  CG2 ILE A   4      13.095 -12.293 -11.765  0.00  0.00    +0.002 C 
BRANCH  39  41
ATOM     41  CG1 ILE A   4      10.897 -12.095 -13.048  0.00  0.00    +0.002 C 
ATOM     42  CD1 ILE A   4      11.481 -11.245 -14.159  0.00  0.00    +0.000 C 
ENDBRANCH  39  41
ENDBRANCH  26  39
ENDBRANCH  24  26
ENDBRANCH   1  22
TORSDOF 18
REMARK  Name = ../refined-set-2016/4qgi/4qgi_pocket.pdb
REMARK  229 active torsions:
REMARK  status: ('A' for Active; 'I' for Inactive)
REMARK    1  A    between atoms: _1  and  _3
REMARK    2  A    between atoms: _3  and  _4
REMARK    3  A    between atoms: _3  and  _6
REMARK    4  A    between atoms: _6  and  _7
REMARK    5  A    between atoms: _7  and  _8
REMARK    6  A    between atoms: _8  and  _9
REMARK    7  A    between atoms: _18  and  _20
REMARK    8  A    between atoms: _20  and  _21
REMARK    9  A    between atoms: _20  and  _23
REMARK   10  A    between atoms: _23  and  _24
REMARK   11  A    between atoms: _27  and  _29
REMARK   12  A    between atoms: _29  and  _30
REMARK   13  A    between atoms: _29  and  _32
REMARK   14  A    between atoms: _32  and  _33
REMARK   15  A    between atoms: _36  and  _38
REMARK   16  A    between atoms: _38  and  _39
REMARK   17  A    between atoms: _38  and  _41
REMARK   18  A    between atoms: _41  and  _42
REMARK   19  A    between atoms: _45  and  _47
REMARK   20  A    between atoms: _47  and  _48
REMARK   21  A    between atoms: _47  and  _50
REMARK   22  A    between atoms: _50  and  _51
REMARK   23  A    between atoms: _54  and  _56
REMARK   24  A    between atoms: _56  and  _57
REMARK   25  A    between atoms: _59  and  _61
REMARK   26  A    between atoms: _61  and  _62
REMARK   27  A    between atoms: _65  and  _67
REMARK   28  A    between atoms: _67  and  _68
REMARK   29  A    between atoms: _67  and  _70
REMARK   30  A    between atoms: _70  and  _71
REMARK   31  A    between atoms: _74  and  _76
REMARK   32  A    between atoms: _76  and  _77
REMARK   33  A    between atoms: _76  and  _79
REMARK   34  A    between atoms: _79  and  _80
REMARK   35  A    between atoms: _83  and  _85
REMARK   36  A    between atoms: _85  and  _86
REMARK   37  A    between atoms: _85  and  _88
REMARK   38  A    between atoms: _88  and  _89
REMARK   39  A    between atoms: _92  and  _94
REMARK   40  A    between atoms: _94  and  _95
REMARK   41  A    between atoms: _94  and  _97
REMARK   42  A    between atoms: _100  and  _102
REMARK   43  A    between atoms: _102  and  _103
REMARK   44  A    between atoms: _102  and  _105
REMARK   45  A    between atoms: _105  and  _106
REMARK   46  A    between atoms: _106  and  _107
REMARK   47  A    between atoms: _107  and  _108
REMARK   48  A    between atoms: _108  and  _109
REMARK   49  A    between atoms: _113  and  _115
REMARK   50  A    between atoms: _115  and  _116
REMARK   51  A    between atoms: _115  and  _118
REMARK   52  A    between atoms: _118  and  _119
REMARK   53  A    between atoms: _119  and  _120
REMARK   54  A    between atoms: _122  and  _124
REMARK   55  A    between atoms: _124  and  _125
REMARK   56  A    between atoms: _124  and  _127
REMARK   57  A    between atoms: _127  and  _128
REMARK   58  A    between atoms: _131  and  _133
REMARK   59  A    between atoms: _133  and  _134
REMARK   60  A    between atoms: _133  and  _136
REMARK   61  A    between atoms: _136  and  _137
REMARK   62  A    between atoms: _140  and  _142
REMARK   63  A    between atoms: _142  and  _143
REMARK   64  A    between atoms: _145  and  _147
REMARK   65  A    between atoms: _147  and  _148
REMARK   66  A    between atoms: _147  and  _150
REMARK   67  A    between atoms: _150  and  _151
REMARK   68  A    between atoms: _154  and  _156
REMARK   69  A    between atoms: _156  and  _157
REMARK   70  A    between atoms: _159  and  _161
REMARK   71  A    between atoms: _161  and  _162
REMARK   72  A    between atoms: _164  and  _166
REMARK   73  A    between atoms: _166  and  _167
REMARK   74  A    between atoms: _166  and  _169
REMARK   75  A    between atoms: _169  and  _170
REMARK   76  A    between atoms: _176  and  _178
REMARK   77  A    between atoms: _178  and  _179
REMARK   78  A    between atoms: _178  and  _181
REMARK   79  A    between atoms: _181  and  _182
REMARK   80  A    between atoms: _185  and  _187
REMARK   81  A    between atoms: _187  and  _188
REMARK   82  A    between atoms: _187  and  _190
REMARK   83  A    between atoms: _193  and  _195
REMARK   84  A    between atoms: _195  and  _196
REMARK   85  A    between atoms: _195  and  _198
REMARK   86  A    between atoms: _198  and  _199
REMARK   87  A    between atoms: _203  and  _204
REMARK   88  A    between atoms: _209  and  _211
REMARK   89  A    between atoms: _211  and  _212
REMARK   90  A    between atoms: _211  and  _214
REMARK   91  A    between atoms: _214  and  _215
REMARK   92  A    between atoms: _219  and  _220
REMARK   93  A    between atoms: _225  and  _227
REMARK   94  A    between atoms: _227  and  _228
REMARK   95  A    between atoms: _227  and  _230
REMARK   96  A    between atoms: _233  and  _235
REMARK   97  A    between atoms: _235  and  _236
REMARK   98  A    between atoms: _235  and  _238
REMARK   99  A    between atoms: _238  and  _239
REMARK  100  A    between atoms: _244  and  _246
REMARK  101  A    between atoms: _246  and  _247
REMARK  102  A    between atoms: _246  and  _249
REMARK  103  A    between atoms: _249  and  _250
REMARK  104  A    between atoms: _253  and  _255
REMARK  105  A    between atoms: _255  and  _256
REMARK  106  A    between atoms: _255  and  _258
REMARK  107  A    between atoms: _258  and  _259
REMARK  108  A    between atoms: _262  and  _264
REMARK  109  A    between atoms: _264  and  _265
REMARK  110  A    between atoms: _267  and  _269
REMARK  111  A    between atoms: _269  and  _270
REMARK  112  A    between atoms: _269  and  _272
REMARK  113  A    between atoms: _272  and  _273
REMARK  114  A    between atoms: _273  and  _274
REMARK  115  A    between atoms: _274  and  _275
REMARK  116  A    between atoms: _284  and  _286
REMARK  117  A    between atoms: _286  and  _287
REMARK  118  A    between atoms: _286  and  _289
REMARK  119  A    between atoms: _289  and  _290
REMARK  120  A    between atoms: _295  and  _297
REMARK  121  A    between atoms: _297  and  _298
REMARK  122  A    between atoms: _297  and  _300
REMARK  123  A    between atoms: _300  and  _301
REMARK  124  A    between atoms: _301  and  _302
REMARK  125  A    between atoms: _302  and  _303
REMARK  126  A    between atoms: _312  and  _314
REMARK  127  A    between atoms: _314  and  _315
REMARK  128  A    between atoms: _314  and  _317
REMARK  129  A    between atoms: _317  and  _318
REMARK  130  A    between atoms: _321  and  _323
REMARK  131  A    between atoms: _323  and  _324
REMARK  132  A    between atoms: _323  and  _326
REMARK  133  A    between atoms: _326  and  _327
REMARK  134  A    between atoms: _330  and  _332
REMARK  135  A    between atoms: _332  and  _333
REMARK  136  A    between atoms: _332  and  _335
REMARK  137  A    between atoms: _335  and  _336
REMARK  138  A    between atoms: _339  and  _341
REMARK  139  A    between atoms: _341  and  _342
REMARK  140  A    between atoms: _341  and  _344
REMARK  141  A    between atoms: _344  and  _345
REMARK  142  A    between atoms: _348  and  _350
REMARK  143  A    between atoms: _350  and  _351
REMARK  144  A    between atoms: _353  and  _355
REMARK  145  A    between atoms: _355  and  _356
REMARK  146  A    between atoms: _359  and  _361
REMARK  147  A    between atoms: _361  and  _362
REMARK  148  A    between atoms: _361  and  _364
REMARK  149  A    between atoms: _364  and  _365
REMARK  150  A    between atoms: _368  and  _370
REMARK  151  A    between atoms: _370  and  _371
REMARK  152  A    between atoms: _370  and  _373
REMARK  153  A    between atoms: _373  and  _374
REMARK  154  A    between atoms: _377  and  _379
REMARK  155  A    between atoms: _379  and  _380
REMARK  156  A    between atoms: _379  and  _382
REMARK  157  A    between atoms: _382  and  _383
REMARK  158  A    between atoms: _386  and  _388
REMARK  159  A    between atoms: _388  and  _389
REMARK  160  A    between atoms: _388  and  _391
REMARK  161  A    between atoms: _394  and  _396
REMARK  162  A    between atoms: _396  and  _397
REMARK  163  A    between atoms: _396  and  _399
REMARK  164  A    between atoms: _399  and  _400
REMARK  165  A    between atoms: _403  and  _405
REMARK  166  A    between atoms: _405  and  _406
REMARK  167  A    between atoms: _405  and  _408
REMARK  168  A    between atoms: _408  and  _409
REMARK  169  A    between atoms: _409  and  _410
REMARK  170  A    between atoms: _410  and  _411
REMARK  171  A    between atoms: _411  and  _412
REMARK  172  A    between atoms: _416  and  _418
REMARK  173  A    between atoms: _418  and  _419
REMARK  174  A    between atoms: _418  and  _421
REMARK  175  A    between atoms: _421  and  _422
REMARK  176  A    between atoms: _425  and  _427
REMARK  177  A    between atoms: _427  and  _428
REMARK  178  A    between atoms: _427  and  _430
REMARK  179  A    between atoms: _430  and  _431
REMARK  180  A    between atoms: _434  and  _436
REMARK  181  A    between atoms: _436  and  _437
REMARK  182  A    between atoms: _439  and  _441
REMARK  183  A    between atoms: _441  and  _442
REMARK  184  A    between atoms: _441  and  _444
REMARK  185  A    between atoms: _444  and  _445
REMARK  186  A    between atoms: _448  and  _450
REMARK  187  A    between atoms: _450  and  _451
REMARK  188  A    between atoms: _453  and  _455
REMARK  189  A    between atoms: _455  and  _456
REMARK  190  A    between atoms: _458  and  _460
REMARK  191  A    between atoms: _460  and  _461
REMARK  192  A    between atoms: _460  and  _463
REMARK  193  A    between atoms: _463  and  _464
REMARK  194  A    between atoms: _467  and  _469
REMARK  195  A    between atoms: _469  and  _470
REMARK  196  A    between atoms: _469  and  _472
REMARK  197  A    between atoms: _475  and  _477
REMARK  198  A    between atoms: _477  and  _478
REMARK  199  A    between atoms: _477  and  _480
REMARK  200  A    between atoms: _480  and  _481
REMARK  201  A    between atoms: _485  and  _486
REMARK  202  A    between atoms: _491  and  _493
REMARK  203  A    between atoms: _493  and  _494
REMARK  204  A    between atoms: _493  and  _496
REMARK  205  A    between atoms: _496  and  _497
REMARK  206  A    between atoms: _501  and  _502
REMARK  207  A    between atoms: _507  and  _509
REMARK  208  A    between atoms: _509  and  _510
REMARK  209  A    between atoms: _509  and  _512
REMARK  210  A    between atoms: _515  and  _517
REMARK  211  A    between atoms: _517  and  _518
REMARK  212  A    between atoms: _517  and  _520
REMARK  213  A    between atoms: _520  and  _521
REMARK  214  A    between atoms: _526  and  _528
REMARK  215  A    between atoms: _528  and  _529
REMARK  216  A    between atoms: _528  and  _531
REMARK  217  A    between atoms: _531  and  _532
REMARK  218  A    between atoms: _535  and  _537
REMARK  219  A    between atoms: _537  and  _538
REMARK  220  A    between atoms: _537  and  _540
REMARK  221  A    between atoms: _540  and  _541
REMARK  222  A    between atoms: _544  and  _546
REMARK  223  A    between atoms: _546  and  _547
REMARK  224  A    between atoms: _549  and  _551
REMARK  225  A    between atoms: _551  and  _552
REMARK  226  A    between atoms: _551  and  _554
REMARK  227  A    between atoms: _554  and  _555
REMARK  228  A    between atoms: _555  and  _556
REMARK  229  A    between atoms: _556  and  _557
REMARK                            x       y       z     vdW  Elec       q    Type
REMARK                         _______ _______ _______ _____ _____    ______ ____
ROOT
ATOM      1  CA  ILE A   1      13.436 -16.949  -1.033  0.00  0.00    +0.133 C 
ENDROOT
BRANCH   1   2
ATOM      2  N   ILE A   1      12.246 -16.717  -1.838  0.00  0.00    -0.239 NA
ATOM      3  H   ILE A   1      11.691 -15.850  -1.689  0.00  0.00    +0.142 HD
ENDBRANCH   1   2
BRANCH   1   4
ATOM      4  C   ILE A   1      13.176 -16.787   0.462  0.00  0.00    +0.224 C 
ATOM      5  O   ILE A   1      12.274 -16.060   0.877  0.00  0.00    -0.287 OA
ENDBRANCH   1   4
BRANCH   1   6
ATOM      6  CB  ILE A   1      14.589 -15.998  -1.424  0.00  0.00    +0.023 C 
ATOM      7  CG2 ILE A   1      15.080 -16.284  -2.831  0.00  0.00    +0.002 C 
BRANCH   6   8
ATOM      8  CG1 ILE A   1      14.141 -14.543  -1.337  0.00  0.00    +0.002 C 
ATOM      9  CD1 ILE A   1      15.293 -13.564  -1.419  0.00  0.00    +0.000 C 
ENDBRANCH   6   8
ENDBRANCH   1   6
TORSDOF 4
REMARK  Name = ../refined-set-2016/4qgi/4qgi_pocket.pdb
REMARK  229 active torsions:
REMARK  status: ('A' for Active; 'I' for Inactive)
REMARK    1  A    between atoms: _1  and  _3
REMARK    2  A    between atoms: _3  and  _4
REMARK    3  A    between atoms: _3  and  _6
REMARK    4  A    between atoms: _6  and  _7
REMARK    5  A    between atoms: _7  and  _8
REMARK    6  A    between atoms: _8  and  _9
REMARK    7  A    between atoms: _18  and  _20
REMARK    8  A    between atoms: _20  and  _21
REMARK    9  A    between atoms: _20  and  _23
REMARK   10  A    between atoms: _23  and  _24
REMARK   11  A    between atoms: _27  and  _29
REMARK   12  A    between atoms: _29  and  _30
REMARK   13  A    between atoms: _29  and  _32
REMARK   14  A    between atoms: _32  and  _33
REMARK   15  A    between atoms: _36  and  _38
REMARK   16  A    between atoms: _38  and  _39
REMARK   17  A    between atoms: _38  and  _41
REMARK   18  A    between atoms: _41  and  _42
REMARK   19  A    between atoms: _45  and  _47
REMARK   20  A    between atoms: _47  and  _48
REMARK   21  A    between atoms: _47  and  _50
REMARK   22  A    between atoms: _50  and  _51
REMARK   23  A    between atoms: _54  and  _56
REMARK   24  A    between atoms: _56  and  _57
REMARK   25  A    between atoms: _59  and  _61
REMARK   26  A    between atoms: _61  and  _62
REMARK   27  A    between atoms: _65  and  _67
REMARK   28  A    between atoms: _67  and  _68
REMARK   29  A    between atoms: _67  and  _70
REMARK   30  A    between atoms: _70  and  _71
REMARK   31  A    between atoms: _74  and  _76
REMARK   32  A    between atoms: _76  and  _77
REMARK   33  A    between atoms: _76  and  _79
REMARK   34  A    between atoms: _79  and  _80
REMARK   35  A    between atoms: _83  and  _85
REMARK   36  A    between atoms: _85  and  _86
REMARK   37  A    between atoms: _85  and  _88
REMARK   38  A    between atoms: _88  and  _89
REMARK   39  A    between atoms: _92  and  _94
REMARK   40  A    between atoms: _94  and  _95
REMARK   41  A    between atoms: _94  and  _97
REMARK   42  A    between atoms: _100  and  _102
REMARK   43  A    between atoms: _102  and  _103
REMARK   44  A    between atoms: _102  and  _105
REMARK   45  A    between atoms: _105  and  _106
REMARK   46  A    between atoms: _106  and  _107
REMARK   47  A    between atoms: _107  and  _108
REMARK   48  A    between atoms: _108  and  _109
REMARK   49  A    between atoms: _113  and  _115
REMARK   50  A    between atoms: _115  and  _116
REMARK   51  A    between atoms: _115  and  _118
REMARK   52  A    between atoms: _118  and  _119
REMARK   53  A    between atoms: _119  and  _120
REMARK   54  A    between atoms: _122  and  _124
REMARK   55  A    between atoms: _124  and  _125
REMARK   56  A    between atoms: _124  and  _127
REMARK   57  A    between atoms: _127  and  _128
REMARK   58  A    between atoms: _131  and  _133
REMARK   59  A    between atoms: _133  and  _134
REMARK   60  A    between atoms: _133  and  _136
REMARK   61  A    between atoms: _136  and  _137
REMARK   62  A    between atoms: _140  and  _142
REMARK   63  A    between atoms: _142  and  _143
REMARK   64  A    between atoms: _145  and  _147
REMARK   65  A    between atoms: _147  and  _148
REMARK   66  A    between atoms: _147  and  _150
REMARK   67  A    between atoms: _150  and  _151
REMARK   68  A    between atoms: _154  and  _156
REMARK   69  A    between atoms: _156  and  _157
REMARK   70  A    between atoms: _159  and  _161
REMARK   71  A    between atoms: _161  and  _162
REMARK   72  A    between atoms: _164  and  _166
REMARK   73  A    between atoms: _166  and  _167
REMARK   74  A    between atoms: _166  and  _169
REMARK   75  A    between atoms: _169  and  _170
REMARK   76  A    between atoms: _176  and  _178
REMARK   77  A    between atoms: _178  and  _179
REMARK   78  A    between atoms: _178  and  _181
REMARK   79  A    between atoms: _181  and  _182
REMARK   80  A    between atoms: _185  and  _187
REMARK   81  A    between atoms: _187  and  _188
REMARK   82  A    between atoms: _187  and  _190
REMARK   83  A    between atoms: _193  and  _195
REMARK   84  A    between atoms: _195  and  _196
REMARK   85  A    between atoms: _195  and  _198
REMARK   86  A    between atoms: _198  and  _199
REMARK   87  A    between atoms: _203  and  _204
REMARK   88  A    between atoms: _209  and  _211
REMARK   89  A    between atoms: _211  and  _212
REMARK   90  A    between atoms: _211  and  _214
REMARK   91  A    between atoms: _214  and  _215
REMARK   92  A    between atoms: _219  and  _220
REMARK   93  A    between atoms: _225  and  _227
REMARK   94  A    between atoms: _227  and  _228
REMARK   95  A    between atoms: _227  and  _230
REMARK   96  A    between atoms: _233  and  _235
REMARK   97  A    between atoms: _235  and  _236
REMARK   98  A    between atoms: _235  and  _238
REMARK   99  A    between atoms: _238  and  _239
REMARK  100  A    between atoms: _244  and  _246
REMARK  101  A    between atoms: _246  and  _247
REMARK  102  A    between atoms: _246  and  _249
REMARK  103  A    between atoms: _249  and  _250
REMARK  104  A    between atoms: _253  and  _255
REMARK  105  A    between atoms: _255  and  _256
REMARK  106  A    between atoms: _255  and  _258
REMARK  107  A    between atoms: _258  and  _259
REMARK  108  A    between atoms: _262  and  _264
REMARK  109  A    between atoms: _264  and  _265
REMARK  110  A    between atoms: _267  and  _269
REMARK  111  A    between atoms: _269  and  _270
REMARK  112  A    between atoms: _269  and  _272
REMARK  113  A    between atoms: _272  and  _273
REMARK  114  A    between atoms: _273  and  _274
REMARK  115  A    between atoms: _274  and  _275
REMARK  116  A    between atoms: _284  and  _286
REMARK  117  A    between atoms: _286  and  _287
REMARK  118  A    between atoms: _286  and  _289
REMARK  119  A    between atoms: _289  and  _290
REMARK  120  A    between atoms: _295  and  _297
REMARK  121  A    between atoms: _297  and  _298
REMARK  122  A    between atoms: _297  and  _300
REMARK  123  A    between atoms: _300  and  _301
REMARK  124  A    between atoms: _301  and  _302
REMARK  125  A    between atoms: _302  and  _303
REMARK  126  A    between atoms: _312  and  _314
REMARK  127  A    between atoms: _314  and  _315
REMARK  128  A    between atoms: _314  and  _317
REMARK  129  A    between atoms: _317  and  _318
REMARK  130  A    between atoms: _321  and  _323
REMARK  131  A    between atoms: _323  and  _324
REMARK  132  A    between atoms: _323  and  _326
REMARK  133  A    between atoms: _326  and  _327
REMARK  134  A    between atoms: _330  and  _332
REMARK  135  A    between atoms: _332  and  _333
REMARK  136  A    between atoms: _332  and  _335
REMARK  137  A    between atoms: _335  and  _336
REMARK  138  A    between atoms: _339  and  _341
REMARK  139  A    between atoms: _341  and  _342
REMARK  140  A    between atoms: _341  and  _344
REMARK  141  A    between atoms: _344  and  _345
REMARK  142  A    between atoms: _348  and  _350
REMARK  143  A    between atoms: _350  and  _351
REMARK  144  A    between atoms: _353  and  _355
REMARK  145  A    between atoms: _355  and  _356
REMARK  146  A    between atoms: _359  and  _361
REMARK  147  A    between atoms: _361  and  _362
REMARK  148  A    between atoms: _361  and  _364
REMARK  149  A    between atoms: _364  and  _365
REMARK  150  A    between atoms: _368  and  _370
REMARK  151  A    between atoms: _370  and  _371
REMARK  152  A    between atoms: _370  and  _373
REMARK  153  A    between atoms: _373  and  _374
REMARK  154  A    between atoms: _377  and  _379
REMARK  155  A    between atoms: _379  and  _380
REMARK  156  A    between atoms: _379  and  _382
REMARK  157  A    between atoms: _382  and  _383
REMARK  158  A    between atoms: _386  and  _388
REMARK  159  A    between atoms: _388  and  _389
REMARK  160  A    between atoms: _388  and  _391
REMARK  161  A    between atoms: _394  and  _396
REMARK  162  A    between atoms: _396  and  _397
REMARK  163  A    between atoms: _396  and  _399
REMARK  164  A    between atoms: _399  and  _400
REMARK  165  A    between atoms: _403  and  _405
REMARK  166  A    between atoms: _405  and  _406
REMARK  167  A    between atoms: _405  and  _408
REMARK  168  A    between atoms: _408  and  _409
REMARK  169  A    between atoms: _409  and  _410
REMARK  170  A    between atoms: _410  and  _411
REMARK  171  A    between atoms: _411  and  _412
REMARK  172  A    between atoms: _416  and  _418
REMARK  173  A    between atoms: _418  and  _419
REMARK  174  A    between atoms: _418  and  _421
REMARK  175  A    between atoms: _421  and  _422
REMARK  176  A    between atoms: _425  and  _427
REMARK  177  A    between atoms: _427  and  _428
REMARK  178  A    between atoms: _427  and  _430
REMARK  179  A    between atoms: _430  and  _431
REMARK  180  A    between atoms: _434  and  _436
REMARK  181  A    between atoms: _436  and  _437
REMARK  182  A    between atoms: _439  and  _441
REMARK  183  A    between atoms: _441  and  _442
REMARK  184  A    between atoms: _441  and  _444
REMARK  185  A    between atoms: _444  and  _445
REMARK  186  A    between atoms: _448  and  _450
REMARK  187  A    between atoms: _450  and  _451
REMARK  188  A    between atoms: _453  and  _455
REMARK  189  A    between atoms: _455  and  _456
REMARK  190  A    between atoms: _458  and  _460
REMARK  191  A    between atoms: _460  and  _461
REMARK  192  A    between atoms: _460  and  _463
REMARK  193  A    between atoms: _463  and  _464
REMARK  194  A    between atoms: _467  and  _469
REMARK  195  A    between atoms: _469  and  _470
REMARK  196  A    between atoms: _469  and  _472
REMARK  197  A    between atoms: _475  and  _477
REMARK  198  A    between atoms: _477  and  _478
REMARK  199  A    between atoms: _477  and  _480
REMARK  200  A    between atoms: _480  and  _481
REMARK  201  A    between atoms: _485  and  _486
REMARK  202  A    between atoms: _491  and  _493
REMARK  203  A    between atoms: _493  and  _494
REMARK  204  A    between atoms: _493  and  _496
REMARK  205  A    between atoms: _496  and  _497
REMARK  206  A    between atoms: _501  and  _502
REMARK  207  A    between atoms: _507  and  _509
REMARK  208  A    between atoms: _509  and  _510
REMARK  209  A    between atoms: _509  and  _512
REMARK  210  A    between atoms: _515  and  _517
REMARK  211  A    between atoms: _517  and  _518
REMARK  212  A    between atoms: _517  and  _520
REMARK  213  A    between atoms: _520  and  _521
REMARK  214  A    between atoms: _526  and  _528
REMARK  215  A    between atoms: _528  and  _529
REMARK  216  A    between atoms: _528  and  _531
REMARK  217  A    between atoms: _531  and  _532
REMARK  218  A    between atoms: _535  and  _537
REMARK  219  A    between atoms: _537  and  _538
REMARK  220  A    between atoms: _537  and  _540
REMARK  221  A    between atoms: _540  and  _541
REMARK  222  A    between atoms: _544  and  _546
REMARK  223  A    between atoms: _546  and  _547
REMARK  224  A    between atoms: _549  and  _551
REMARK  225  A    between atoms: _551  and  _552
REMARK  226  A    between atoms: _551  and  _554
REMARK  227  A    between atoms: _554  and  _555
REMARK  228  A    between atoms: _555  and  _556
REMARK  229  A    between atoms: _556  and  _557
REMARK                            x       y       z     vdW  Elec       q    Type
REMARK                         _______ _______ _______ _____ _____    ______ ____
ROOT
ATOM      1  CA  VAL A   1      15.297 -14.148   4.358  0.00  0.00    +0.133 C 
ENDROOT
BRANCH   1   2
ATOM      2  CB  VAL A   1      14.876 -12.837   3.690  0.00  0.00    +0.023 C 
ATOM      3  CG2 VAL A   1      13.429 -12.508   4.058  0.00  0.00    +0.002 C 
ATOM      4  CG1 VAL A   1      15.049 -12.925   2.188  0.00  0.00    +0.002 C 
ENDBRANCH   1   2
BRANCH   1   5
ATOM      5  N   VAL A   1      14.453 -15.257   3.934  0.00  0.00    -0.239 NA
ATOM      6  H   VAL A   1      13.482 -15.321   4.300  0.00  0.00    +0.142 HD
ENDBRANCH   1   5
BRANCH   1   7
ATOM      7  C   VAL A   1      15.230 -13.976   5.872  0.00  0.00    +0.224 C 
ATOM      8  O   VAL A   1      14.355 -14.548   6.529  0.00  0.00    -0.287 OA
ENDBRANCH   1   7
TORSDOF 3
REMARK  Name = ../refined-set-2016/4qgi/4qgi_pocket.pdb
REMARK  229 active torsions:
REMARK  status: ('A' for Active; 'I' for Inactive)
REMARK    1  A    between atoms: _1  and  _3
REMARK    2  A    between atoms: _3  and  _4
REMARK    3  A    between atoms: _3  and  _6
REMARK    4  A    between atoms: _6  and  _7
REMARK    5  A    between atoms: _7  and  _8
REMARK    6  A    between atoms: _8  and  _9
REMARK    7  A    between atoms: _18  and  _20
REMARK    8  A    between atoms: _20  and  _21
REMARK    9  A    between atoms: _20  and  _23
REMARK   10  A    between atoms: _23  and  _24
REMARK   11  A    between atoms: _27  and  _29
REMARK   12  A    between atoms: _29  and  _30
REMARK   13  A    between atoms: _29  and  _32
REMARK   14  A    between atoms: _32  and  _33
REMARK   15  A    between atoms: _36  and  _38
REMARK   16  A    between atoms: _38  and  _39
REMARK   17  A    between atoms: _38  and  _41
REMARK   18  A    between atoms: _41  and  _42
REMARK   19  A    between atoms: _45  and  _47
REMARK   20  A    between atoms: _47  and  _48
REMARK   21  A    between atoms: _47  and  _50
REMARK   22  A    between atoms: _50  and  _51
REMARK   23  A    between atoms: _54  and  _56
REMARK   24  A    between atoms: _56  and  _57
REMARK   25  A    between atoms: _59  and  _61
REMARK   26  A    between atoms: _61  and  _62
REMARK   27  A    between atoms: _65  and  _67
REMARK   28  A    between atoms: _67  and  _68
REMARK   29  A    between atoms: _67  and  _70
REMARK   30  A    between atoms: _70  and  _71
REMARK   31  A    between atoms: _74  and  _76
REMARK   32  A    between atoms: _76  and  _77
REMARK   33  A    between atoms: _76  and  _79
REMARK   34  A    between atoms: _79  and  _80
REMARK   35  A    between atoms: _83  and  _85
REMARK   36  A    between atoms: _85  and  _86
REMARK   37  A    between atoms: _85  and  _88
REMARK   38  A    between atoms: _88  and  _89
REMARK   39  A    between atoms: _92  and  _94
REMARK   40  A    between atoms: _94  and  _95
REMARK   41  A    between atoms: _94  and  _97
REMARK   42  A    between atoms: _100  and  _102
REMARK   43  A    between atoms: _102  and  _103
REMARK   44  A    between atoms: _102  and  _105
REMARK   45  A    between atoms: _105  and  _106
REMARK   46  A    between atoms: _106  and  _107
REMARK   47  A    between atoms: _107  and  _108
REMARK   48  A    between atoms: _108  and  _109
REMARK   49  A    between atoms: _113  and  _115
REMARK   50  A    between atoms: _115  and  _116
REMARK   51  A    between atoms: _115  and  _118
REMARK   52  A    between atoms: _118  and  _119
REMARK   53  A    between atoms: _119  and  _120
REMARK   54  A    between atoms: _122  and  _124
REMARK   55  A    between atoms: _124  and  _125
REMARK   56  A    between atoms: _124  and  _127
REMARK   57  A    between atoms: _127  and  _128
REMARK   58  A    between atoms: _131  and  _133
REMARK   59  A    between atoms: _133  and  _134
REMARK   60  A    between atoms: _133  and  _136
REMARK   61  A    between atoms: _136  and  _137
REMARK   62  A    between atoms: _140  and  _142
REMARK   63  A    between atoms: _142  and  _143
REMARK   64  A    between atoms: _145  and  _147
REMARK   65  A    between atoms: _147  and  _148
REMARK   66  A    between atoms: _147  and  _150
REMARK   67  A    between atoms: _150  and  _151
REMARK   68  A    between atoms: _154  and  _156
REMARK   69  A    between atoms: _156  and  _157
REMARK   70  A    between atoms: _159  and  _161
REMARK   71  A    between atoms: _161  and  _162
REMARK   72  A    between atoms: _164  and  _166
REMARK   73  A    between atoms: _166  and  _167
REMARK   74  A    between atoms: _166  and  _169
REMARK   75  A    between atoms: _169  and  _170
REMARK   76  A    between atoms: _176  and  _178
REMARK   77  A    between atoms: _178  and  _179
REMARK   78  A    between atoms: _178  and  _181
REMARK   79  A    between atoms: _181  and  _182
REMARK   80  A    between atoms: _185  and  _187
REMARK   81  A    between atoms: _187  and  _188
REMARK   82  A    between atoms: _187  and  _190
REMARK   83  A    between atoms: _193  and  _195
REMARK   84  A    between atoms: _195  and  _196
REMARK   85  A    between atoms: _195  and  _198
REMARK   86  A    between atoms: _198  and  _199
REMARK   87  A    between atoms: _203  and  _204
REMARK   88  A    between atoms: _209  and  _211
REMARK   89  A    between atoms: _211  and  _212
REMARK   90  A    between atoms: _211  and  _214
REMARK   91  A    between atoms: _214  and  _215
REMARK   92  A    between atoms: _219  and  _220
REMARK   93  A    between atoms: _225  and  _227
REMARK   94  A    between atoms: _227  and  _228
REMARK   95  A    between atoms: _227  and  _230
REMARK   96  A    between atoms: _233  and  _235
REMARK   97  A    between atoms: _235  and  _236
REMARK   98  A    between atoms: _235  and  _238
REMARK   99  A    between atoms: _238  and  _239
REMARK  100  A    between atoms: _244  and  _246
REMARK  101  A    between atoms: _246  and  _247
REMARK  102  A    between atoms: _246  and  _249
REMARK  103  A    between atoms: _249  and  _250
REMARK  104  A    between atoms: _253  and  _255
REMARK  105  A    between atoms: _255  and  _256
REMARK  106  A    between atoms: _255  and  _258
REMARK  107  A    between atoms: _258  and  _259
REMARK  108  A    between atoms: _262  and  _264
REMARK  109  A    between atoms: _264  and  _265
REMARK  110  A    between atoms: _267  and  _269
REMARK  111  A    between atoms: _269  and  _270
REMARK  112  A    between atoms: _269  and  _272
REMARK  113  A    between atoms: _272  and  _273
REMARK  114  A    between atoms: _273  and  _274
REMARK  115  A    between atoms: _274  and  _275
REMARK  116  A    between atoms: _284  and  _286
REMARK  117  A    between atoms: _286  and  _287
REMARK  118  A    between atoms: _286  and  _289
REMARK  119  A    between atoms: _289  and  _290
REMARK  120  A    between atoms: _295  and  _297
REMARK  121  A    between atoms: _297  and  _298
REMARK  122  A    between atoms: _297  and  _300
REMARK  123  A    between atoms: _300  and  _301
REMARK  124  A    between atoms: _301  and  _302
REMARK  125  A    between atoms: _302  and  _303
REMARK  126  A    between atoms: _312  and  _314
REMARK  127  A    between atoms: _314  and  _315
REMARK  128  A    between atoms: _314  and  _317
REMARK  129  A    between atoms: _317  and  _318
REMARK  130  A    between atoms: _321  and  _323
REMARK  131  A    between atoms: _323  and  _324
REMARK  132  A    between atoms: _323  and  _326
REMARK  133  A    between atoms: _326  and  _327
REMARK  134  A    between atoms: _330  and  _332
REMARK  135  A    between atoms: _332  and  _333
REMARK  136  A    between atoms: _332  and  _335
REMARK  137  A    between atoms: _335  and  _336
REMARK  138  A    between atoms: _339  and  _341
REMARK  139  A    between atoms: _341  and  _342
REMARK  140  A    between atoms: _341  and  _344
REMARK  141  A    between atoms: _344  and  _345
REMARK  142  A    between atoms: _348  and  _350
REMARK  143  A    between atoms: _350  and  _351
REMARK  144  A    between atoms: _353  and  _355
REMARK  145  A    between atoms: _355  and  _356
REMARK  146  A    between atoms: _359  and  _361
REMARK  147  A    between atoms: _361  and  _362
REMARK  148  A    between atoms: _361  and  _364
REMARK  149  A    between atoms: _364  and  _365
REMARK  150  A    between atoms: _368  and  _370
REMARK  151  A    between atoms: _370  and  _371
REMARK  152  A    between atoms: _370  and  _373
REMARK  153  A    between atoms: _373  and  _374
REMARK  154  A    between atoms: _377  and  _379
REMARK  155  A    between atoms: _379  and  _380
REMARK  156  A    between atoms: _379  and  _382
REMARK  157  A    between atoms: _382  and  _383
REMARK  158  A    between atoms: _386  and  _388
REMARK  159  A    between atoms: _388  and  _389
REMARK  160  A    between atoms: _388  and  _391
REMARK  161  A    between atoms: _394  and  _396
REMARK  162  A    between atoms: _396  and  _397
REMARK  163  A    between atoms: _396  and  _399
REMARK  164  A    between atoms: _399  and  _400
REMARK  165  A    between atoms: _403  and  _405
REMARK  166  A    between atoms: _405  and  _406
REMARK  167  A    between atoms: _405  and  _408
REMARK  168  A    between atoms: _408  and  _409
REMARK  169  A    between atoms: _409  and  _410
REMARK  170  A    between atoms: _410  and  _411
REMARK  171  A    between atoms: _411  and  _412
REMARK  172  A    between atoms: _416  and  _418
REMARK  173  A    between atoms: _418  and  _419
REMARK  174  A    between atoms: _418  and  _421
REMARK  175  A    between atoms: _421  and  _422
REMARK  176  A    between atoms: _425  and  _427
REMARK  177  A    between atoms: _427  and  _428
REMARK  178  A    between atoms: _427  and  _430
REMARK  179  A    between atoms: _430  and  _431
REMARK  180  A    between atoms: _434  and  _436
REMARK  181  A    between atoms: _436  and  _437
REMARK  182  A    between atoms: _439  and  _441
REMARK  183  A    between atoms: _441  and  _442
REMARK  184  A    between atoms: _441  and  _444
REMARK  185  A    between atoms: _444  and  _445
REMARK  186  A    between atoms: _448  and  _450
REMARK  187  A    between atoms: _450  and  _451
REMARK  188  A    between atoms: _453  and  _455
REMARK  189  A    between atoms: _455  and  _456
REMARK  190  A    between atoms: _458  and  _460
REMARK  191  A    between atoms: _460  and  _461
REMARK  192  A    between atoms: _460  and  _463
REMARK  193  A    between atoms: _463  and  _464
REMARK  194  A    between atoms: _467  and  _469
REMARK  195  A    between atoms: _469  and  _470
REMARK  196  A    between atoms: _469  and  _472
REMARK  197  A    between atoms: _475  and  _477
REMARK  198  A    between atoms: _477  and  _478
REMARK  199  A    between atoms: _477  and  _480
REMARK  200  A    between atoms: _480  and  _481
REMARK  201  A    between atoms: _485  and  _486
REMARK  202  A    between atoms: _491  and  _493
REMARK  203  A    between atoms: _493  and  _494
REMARK  204  A    between atoms: _493  and  _496
REMARK  205  A    between atoms: _496  and  _497
REMARK  206  A    between atoms: _501  and  _502
REMARK  207  A    between atoms: _507  and  _509
REMARK  208  A    between atoms: _509  and  _510
REMARK  209  A    between atoms: _509  and  _512
REMARK  210  A    between atoms: _515  and  _517
REMARK  211  A    between atoms: _517  and  _518
REMARK  212  A    between atoms: _517  and  _520
REMARK  213  A    between atoms: _520  and  _521
REMARK  214  A    between atoms: _526  and  _528
REMARK  215  A    between atoms: _528  and  _529
REMARK  216  A    between atoms: _528  and  _531
REMARK  217  A    between atoms: _531  and  _532
REMARK  218  A    between atoms: _535  and  _537
REMARK  219  A    between atoms: _537  and  _538
REMARK  220  A    between atoms: _537  and  _540
REMARK  221  A    between atoms: _540  and  _541
REMARK  222  A    between atoms: _544  and  _546
REMARK  223  A    between atoms: _546  and  _547
REMARK  224  A    between atoms: _549  and  _551
REMARK  225  A    between atoms: _551  and  _552
REMARK  226  A    between atoms: _551  and  _554
REMARK  227  A    between atoms: _554  and  _555
REMARK  228  A    between atoms: _555  and  _556
REMARK  229  A    between atoms: _556  and  _557
REMARK                            x       y       z     vdW  Elec       q    Type
REMARK                         _______ _______ _______ _____ _____    ______ ____
ROOT
ATOM      1  CA  LEU A   1      15.732  -8.379   4.938  0.00  0.00    +0.133 C 
ENDROOT
BRANCH   1   2
ATOM      2  N   LEU A   1      15.710  -6.925   5.080  0.00  0.00    -0.239 NA
ATOM      3  H   LEU A   1      15.741  -6.334   4.225  0.00  0.00    +0.142 HD
ENDBRANCH   1   2
BRANCH   1   4
ATOM      4  C   LEU A   1      17.087  -8.864   4.445  0.00  0.00    +0.224 C 
ATOM      5  O   LEU A   1      17.561  -8.428   3.398  0.00  0.00    -0.287 OA
ENDBRANCH   1   4
BRANCH   1   6
ATOM      6  CB  LEU A   1      14.635  -8.827   3.974  0.00  0.00    +0.025 C 
BRANCH   6   7
ATOM      7  CG  LEU A   1      13.267  -8.182   4.278  0.00  0.00    +0.002 C 
ATOM      8  CD2 LEU A   1      12.702  -8.670   5.603  0.00  0.00    +0.000 C 
ATOM      9  CD1 LEU A   1      12.295  -8.448   3.157  0.00  0.00    +0.000 C 
ENDBRANCH   6   7
ENDBRANCH   1   6
TORSDOF 4
REMARK  Name = ../refined-set-2016/4qgi/4qgi_pocket.pdb
REMARK  229 active torsions:
REMARK  status: ('A' for Active; 'I' for Inactive)
REMARK    1  A    between atoms: _1  and  _3
REMARK    2  A    between atoms: _3  and  _4
REMARK    3  A    between atoms: _3  and  _6
REMARK    4  A    between atoms: _6  and  _7
REMARK    5  A    between atoms: _7  and  _8
REMARK    6  A    between atoms: _8  and  _9
REMARK    7  A    between atoms: _18  and  _20
REMARK    8  A    between atoms: _20  and  _21
REMARK    9  A    between atoms: _20  and  _23
REMARK   10  A    between atoms: _23  and  _24
REMARK   11  A    between atoms: _27  and  _29
REMARK   12  A    between atoms: _29  and  _30
REMARK   13  A    between atoms: _29  and  _32
REMARK   14  A    between atoms: _32  and  _33
REMARK   15  A    between atoms: _36  and  _38
REMARK   16  A    between atoms: _38  and  _39
REMARK   17  A    between atoms: _38  and  _41
REMARK   18  A    between atoms: _41  and  _42
REMARK   19  A    between atoms: _45  and  _47
REMARK   20  A    between atoms: _47  and  _48
REMARK   21  A    between atoms: _47  and  _50
REMARK   22  A    between atoms: _50  and  _51
REMARK   23  A    between atoms: _54  and  _56
REMARK   24  A    between atoms: _56  and  _57
REMARK   25  A    between atoms: _59  and  _61
REMARK   26  A    between atoms: _61  and  _62
REMARK   27  A    between atoms: _65  and  _67
REMARK   28  A    between atoms: _67  and  _68
REMARK   29  A    between atoms: _67  and  _70
REMARK   30  A    between atoms: _70  and  _71
REMARK   31  A    between atoms: _74  and  _76
REMARK   32  A    between atoms: _76  and  _77
REMARK   33  A    between atoms: _76  and  _79
REMARK   34  A    between atoms: _79  and  _80
REMARK   35  A    between atoms: _83  and  _85
REMARK   36  A    between atoms: _85  and  _86
REMARK   37  A    between atoms: _85  and  _88
REMARK   38  A    between atoms: _88  and  _89
REMARK   39  A    between atoms: _92  and  _94
REMARK   40  A    between atoms: _94  and  _95
REMARK   41  A    between atoms: _94  and  _97
REMARK   42  A    between atoms: _100  and  _102
REMARK   43  A    between atoms: _102  and  _103
REMARK   44  A    between atoms: _102  and  _105
REMARK   45  A    between atoms: _105  and  _106
REMARK   46  A    between atoms: _106  and  _107
REMARK   47  A    between atoms: _107  and  _108
REMARK   48  A    between atoms: _108  and  _109
REMARK   49  A    between atoms: _113  and  _115
REMARK   50  A    between atoms: _115  and  _116
REMARK   51  A    between atoms: _115  and  _118
REMARK   52  A    between atoms: _118  and  _119
REMARK   53  A    between atoms: _119  and  _120
REMARK   54  A    between atoms: _122  and  _124
REMARK   55  A    between atoms: _124  and  _125
REMARK   56  A    between atoms: _124  and  _127
REMARK   57  A    between atoms: _127  and  _128
REMARK   58  A    between atoms: _131  and  _133
REMARK   59  A    between atoms: _133  and  _134
REMARK   60  A    between atoms: _133  and  _136
REMARK   61  A    between atoms: _136  and  _137
REMARK   62  A    between atoms: _140  and  _142
REMARK   63  A    between atoms: _142  and  _143
REMARK   64  A    between atoms: _145  and  _147
REMARK   65  A    between atoms: _147  and  _148
REMARK   66  A    between atoms: _147  and  _150
REMARK   67  A    between atoms: _150  and  _151
REMARK   68  A    between atoms: _154  and  _156
REMARK   69  A    between atoms: _156  and  _157
REMARK   70  A    between atoms: _159  and  _161
REMARK   71  A    between atoms: _161  and  _162
REMARK   72  A    between atoms: _164  and  _166
REMARK   73  A    between atoms: _166  and  _167
REMARK   74  A    between atoms: _166  and  _169
REMARK   75  A    between atoms: _169  and  _170
REMARK   76  A    between atoms: _176  and  _178
REMARK   77  A    between atoms: _178  and  _179
REMARK   78  A    between atoms: _178  and  _181
REMARK   79  A    between atoms: _181  and  _182
REMARK   80  A    between atoms: _185  and  _187
REMARK   81  A    between atoms: _187  and  _188
REMARK   82  A    between atoms: _187  and  _190
REMARK   83  A    between atoms: _193  and  _195
REMARK   84  A    between atoms: _195  and  _196
REMARK   85  A    between atoms: _195  and  _198
REMARK   86  A    between atoms: _198  and  _199
REMARK   87  A    between atoms: _203  and  _204
REMARK   88  A    between atoms: _209  and  _211
REMARK   89  A    between atoms: _211  and  _212
REMARK   90  A    between atoms: _211  and  _214
REMARK   91  A    between atoms: _214  and  _215
REMARK   92  A    between atoms: _219  and  _220
REMARK   93  A    between atoms: _225  and  _227
REMARK   94  A    between atoms: _227  and  _228
REMARK   95  A    between atoms: _227  and  _230
REMARK   96  A    between atoms: _233  and  _235
REMARK   97  A    between atoms: _235  and  _236
REMARK   98  A    between atoms: _235  and  _238
REMARK   99  A    between atoms: _238  and  _239
REMARK  100  A    between atoms: _244  and  _246
REMARK  101  A    between atoms: _246  and  _247
REMARK  102  A    between atoms: _246  and  _249
REMARK  103  A    between atoms: _249  and  _250
REMARK  104  A    between atoms: _253  and  _255
REMARK  105  A    between atoms: _255  and  _256
REMARK  106  A    between atoms: _255  and  _258
REMARK  107  A    between atoms: _258  and  _259
REMARK  108  A    between atoms: _262  and  _264
REMARK  109  A    between atoms: _264  and  _265
REMARK  110  A    between atoms: _267  and  _269
REMARK  111  A    between atoms: _269  and  _270
REMARK  112  A    between atoms: _269  and  _272
REMARK  113  A    between atoms: _272  and  _273
REMARK  114  A    between atoms: _273  and  _274
REMARK  115  A    between atoms: _274  and  _275
REMARK  116  A    between atoms: _284  and  _286
REMARK  117  A    between atoms: _286  and  _287
REMARK  118  A    between atoms: _286  and  _289
REMARK  119  A    between atoms: _289  and  _290
REMARK  120  A    between atoms: _295  and  _297
REMARK  121  A    between atoms: _297  and  _298
REMARK  122  A    between atoms: _297  and  _300
REMARK  123  A    between atoms: _300  and  _301
REMARK  124  A    between atoms: _301  and  _302
REMARK  125  A    between atoms: _302  and  _303
REMARK  126  A    between atoms: _312  and  _314
REMARK  127  A    between atoms: _314  and  _315
REMARK  128  A    between atoms: _314  and  _317
REMARK  129  A    between atoms: _317  and  _318
REMARK  130  A    between atoms: _321  and  _323
REMARK  131  A    between atoms: _323  and  _324
REMARK  132  A    between atoms: _323  and  _326
REMARK  133  A    between atoms: _326  and  _327
REMARK  134  A    between atoms: _330  and  _332
REMARK  135  A    between atoms: _332  and  _333
REMARK  136  A    between atoms: _332  and  _335
REMARK  137  A    between atoms: _335  and  _336
REMARK  138  A    between atoms: _339  and  _341
REMARK  139  A    between atoms: _341  and  _342
REMARK  140  A    between atoms: _341  and  _344
REMARK  141  A    between atoms: _344  and  _345
REMARK  142  A    between atoms: _348  and  _350
REMARK  143  A    between atoms: _350  and  _351
REMARK  144  A    between atoms: _353  and  _355
REMARK  145  A    between atoms: _355  and  _356
REMARK  146  A    between atoms: _359  and  _361
REMARK  147  A    between atoms: _361  and  _362
REMARK  148  A    between atoms: _361  and  _364
REMARK  149  A    between atoms: _364  and  _365
REMARK  150  A    between atoms: _368  and  _370
REMARK  151  A    between atoms: _370  and  _371
REMARK  152  A    between atoms: _370  and  _373
REMARK  153  A    between atoms: _373  and  _374
REMARK  154  A    between atoms: _377  and  _379
REMARK  155  A    between atoms: _379  and  _380
REMARK  156  A    between atoms: _379  and  _382
REMARK  157  A    between atoms: _382  and  _383
REMARK  158  A    between atoms: _386  and  _388
REMARK  159  A    between atoms: _388  and  _389
REMARK  160  A    between atoms: _388  and  _391
REMARK  161  A    between atoms: _394  and  _396
REMARK  162  A    between atoms: _396  and  _397
REMARK  163  A    between atoms: _396  and  _399
REMARK  164  A    between atoms: _399  and  _400
REMARK  165  A    between atoms: _403  and  _405
REMARK  166  A    between atoms: _405  and  _406
REMARK  167  A    between atoms: _405  and  _408
REMARK  168  A    between atoms: _408  and  _409
REMARK  169  A    between atoms: _409  and  _410
REMARK  170  A    between atoms: _410  and  _411
REMARK  171  A    between atoms: _411  and  _412
REMARK  172  A    between atoms: _416  and  _418
REMARK  173  A    between atoms: _418  and  _419
REMARK  174  A    between atoms: _418  and  _421
REMARK  175  A    between atoms: _421  and  _422
REMARK  176  A    between atoms: _425  and  _427
REMARK  177  A    between atoms: _427  and  _428
REMARK  178  A    between atoms: _427  and  _430
REMARK  179  A    between atoms: _430  and  _431
REMARK  180  A    between atoms: _434  and  _436
REMARK  181  A    between atoms: _436  and  _437
REMARK  182  A    between atoms: _439  and  _441
REMARK  183  A    between atoms: _441  and  _442
REMARK  184  A    between atoms: _441  and  _444
REMARK  185  A    between atoms: _444  and  _445
REMARK  186  A    between atoms: _448  and  _450
REMARK  187  A    between atoms: _450  and  _451
REMARK  188  A    between atoms: _453  and  _455
REMARK  189  A    between atoms: _455  and  _456
REMARK  190  A    between atoms: _458  and  _460
REMARK  191  A    between atoms: _460  and  _461
REMARK  192  A    between atoms: _460  and  _463
REMARK  193  A    between atoms: _463  and  _464
REMARK  194  A    between atoms: _467  and  _469
REMARK  195  A    between atoms: _469  and  _470
REMARK  196  A    between atoms: _469  and  _472
REMARK  197  A    between atoms: _475  and  _477
REMARK  198  A    between atoms: _477  and  _478
REMARK  199  A    between atoms: _477  and  _480
REMARK  200  A    between atoms: _480  and  _481
REMARK  201  A    between atoms: _485  and  _486
REMARK  202  A    between atoms: _491  and  _493
REMARK  203  A    between atoms: _493  and  _494
REMARK  204  A    between atoms: _493  and  _496
REMARK  205  A    between atoms: _496  and  _497
REMARK  206  A    between atoms: _501  and  _502
REMARK  207  A    between atoms: _507  and  _509
REMARK  208  A    between atoms: _509  and  _510
REMARK  209  A    between atoms: _509  and  _512
REMARK  210  A    between atoms: _515  and  _517
REMARK  211  A    between atoms: _517  and  _518
REMARK  212  A    between atoms: _517  and  _520
REMARK  213  A    between atoms: _520  and  _521
REMARK  214  A    between atoms: _526  and  _528
REMARK  215  A    between atoms: _528  and  _529
REMARK  216  A    between atoms: _528  and  _531
REMARK  217  A    between atoms: _531  and  _532
REMARK  218  A    between atoms: _535  and  _537
REMARK  219  A    between atoms: _537  and  _538
REMARK  220  A    between atoms: _537  and  _540
REMARK  221  A    between atoms: _540  and  _541
REMARK  222  A    between atoms: _544  and  _546
REMARK  223  A    between atoms: _546  and  _547
REMARK  224  A    between atoms: _549  and  _551
REMARK  225  A    between atoms: _551  and  _552
REMARK  226  A    between atoms: _551  and  _554
REMARK  227  A    between atoms: _554  and  _555
REMARK  228  A    between atoms: _555  and  _556
REMARK  229  A    between atoms: _556  and  _557
REMARK                            x       y       z     vdW  Elec       q    Type
REMARK                         _______ _______ _______ _____ _____    ______ ____
ROOT
ATOM      1  C   ASN A   5      20.929  -4.013  -2.550  0.00  0.00    +0.241 C 
ATOM      2  N   ILE A   6      19.663  -4.160  -2.162  0.00  0.00    -0.297 N 
ATOM      3  H   ILE A   6      19.432  -4.772  -1.353  0.00  0.00    +0.150 HD
ATOM      4  O   ASN A   5      21.258  -3.309  -3.500  0.00  0.00    -0.273 OA
ENDROOT
BRANCH   1   5
ATOM      5  CA  ASN A   5      21.971  -4.790  -1.778  0.00  0.00    +0.158 C 
BRANCH   5   7
ATOM      6  C   VAL A   4      22.264  -6.401  -3.549  0.00  0.00    +0.241 C 
ATOM      7  N   ASN A   5      22.813  -5.530  -2.707  0.00  0.00    -0.297 N 
ATOM      8  H   ASN A   5      23.842  -5.378  -2.712  0.00  0.00    +0.150 HD
ATOM      9  O   VAL A   4      21.091  -6.731  -3.467  0.00  0.00    -0.273 OA
BRANCH   6  10
ATOM     10  CA  VAL A   4      23.154  -7.003  -4.643  0.00  0.00    +0.149 C 
BRANCH  10  12
ATOM     11  C   PRO A   3      23.791  -9.270  -5.226  0.00  0.00    +0.241 C 
ATOM     12  N   VAL A   4      22.834  -8.413  -4.882  0.00  0.00    -0.297 N 
ATOM     13  H   VAL A   4      21.854  -8.745  -4.782  0.00  0.00    +0.150 HD
ATOM     14  O   PRO A   3      24.963  -8.930  -5.368  0.00  0.00    -0.273 OA
BRANCH  11  18
ATOM     15  C   THR A   2      21.946 -11.104  -3.537  0.00  0.00    +0.246 C 
ATOM     16  O   THR A   2      22.889 -10.978  -2.764  0.00  0.00    -0.273 OA
ATOM     17  N   PRO A   3      22.096 -11.049  -4.867  0.00  0.00    -0.272 N 
ATOM     18  CA  PRO A   3      23.367 -10.707  -5.512  0.00  0.00    +0.152 C 
ATOM     19  CB  PRO A   3      23.080 -10.913  -7.004  0.00  0.00    +0.031 C 
ATOM     20  CG  PRO A   3      21.637 -10.849  -7.135  0.00  0.00    +0.024 C 
ATOM     21  CD  PRO A   3      21.036 -11.328  -5.846  0.00  0.00    +0.094 C 
BRANCH  15  22
ATOM     22  CA  THR A   2      20.530 -11.355  -2.996  0.00  0.00    +0.176 C 
BRANCH  22  24
ATOM     23  C   PRO A   1      20.269 -13.629  -2.144  0.00  0.00    +0.239 C 
ATOM     24  N   THR A   2      20.562 -12.346  -1.918  0.00  0.00    -0.295 N 
ATOM     25  H   THR A   2      20.818 -12.044  -0.956  0.00  0.00    +0.150 HD
ATOM     26  O   PRO A   1      19.846 -14.056  -3.228  0.00  0.00    -0.274 OA
BRANCH  23  31
ATOM     27  N   PRO A   1      19.621 -14.258   0.179  0.00  0.00    -0.210 NA
ATOM     28  CD  PRO A   1      18.462 -15.160   0.319  0.00  0.00    +0.089 C 
ATOM     29  CG  PRO A   1      18.513 -15.979  -0.962  0.00  0.00    +0.021 C 
ATOM     30  CB  PRO A   1      19.957 -15.988  -1.374  0.00  0.00    +0.028 C 
ATOM     31  CA  PRO A   1      20.453 -14.597  -0.984  0.00  0.00    +0.149 C 
ENDBRANCH  23  31
ENDBRANCH  22  24
BRANCH  22  32
ATOM     32  CB  THR A   2      19.903 -10.039  -2.518  0.00  0.00    +0.137 C 
ATOM     33  CG2 THR A   2      20.693  -9.448  -1.345  0.00  0.00    +0.034 C 
BRANCH  32  34
ATOM     34  OG1 THR A   2      19.837  -9.111  -3.601  0.00  0.00    -0.382 OA
ATOM     35  HG1 THR A   2      19.432  -8.265  -3.285  0.00  0.00    +0.210 HD
ENDBRANCH  32  34
ENDBRANCH  22  32
ENDBRANCH  15  22
ENDBRANCH  11  18
ENDBRANCH  10  12
BRANCH  10  36
ATOM     36  CB  VAL A   4      23.025  -6.173  -5.948  0.00  0.00    +0.027 C 
ATOM     37  CG2 VAL A   4      23.600  -4.774  -5.749  0.00  0.00    +0.002 C 
ATOM     38  CG1 VAL A   4      21.573  -6.106  -6.417  0.00  0.00    +0.002 C 
ENDBRANCH  10  36
ENDBRANCH   6  10
ENDBRANCH   5   7
BRANCH   5  39
ATOM     39  CB  ASN A   5      22.790  -3.833  -0.919  0.00  0.00    +0.114 C 
BRANCH  39  40
ATOM     40  CG  ASN A   5      23.711  -4.545   0.039  0.00  0.00    +0.222 C 
ATOM     41  OD1 ASN A   5      23.357  -5.582   0.605  0.00  0.00    -0.275 OA
ATOM     42  ND2 ASN A   5      24.920  -4.010   0.202  0.00  0.00    -0.329 N 
ATOM     43 HD21 ASN A   5      25.612  -4.469   0.829  0.00  0.00    +0.145 HD
ATOM     44 HD22 ASN A   5      25.172  -3.133  -0.297  0.00  0.00    +0.145 HD
ENDBRANCH  39  40
ENDBRANCH   5  39
ENDBRANCH   1   5
BRANCH   2  45
ATOM     45  CA  ILE A   6      18.605  -3.461  -2.875  0.00  0.00    +0.149 C 
BRANCH  45  46
ATOM     46  C   ILE A   6      17.838  -2.559  -1.935  0.00  0.00    +0.241 C 
ATOM     47  O   ILE A   6      17.321  -3.020  -0.927  0.00  0.00    -0.273 OA
ATOM     48  N   ILE A   7      17.734  -1.279  -2.289  0.00  0.00    -0.297 N 
ATOM     49  H   ILE A   7      18.204  -0.944  -3.154  0.00  0.00    +0.150 HD
BRANCH  48  50
ATOM     50  CA  ILE A   7      16.969  -0.344  -1.478  0.00  0.00    +0.149 C 
BRANCH  50  51
ATOM     51  C   ILE A   7      15.594  -0.235  -2.104  0.00  0.00    +0.241 C 
ATOM     52  N   GLY A   8      14.592  -0.753  -1.396  0.00  0.00    -0.295 N 
ATOM     53  H   GLY A   8      14.795  -1.152  -0.457  0.00  0.00    +0.150 HD
ATOM     54  O   ILE A   7      15.453   0.267  -3.222  0.00  0.00    -0.273 OA
BRANCH  52  55
ATOM     55  CA  GLY A   8      13.229  -0.781  -1.886  0.00  0.00    +0.176 C 
BRANCH  55  56
ATOM     56  C   GLY A   8      12.418   0.409  -1.423  0.00  0.00    +0.243 C 
ATOM     57  O   GLY A   8      12.912   1.240  -0.670  0.00  0.00    -0.273 OA
ATOM     58  N   ARG A   9      11.158   0.470  -1.854  0.00  0.00    -0.298 N 
ATOM     59  H   ARG A   9      10.762  -0.336  -2.379  0.00  0.00    +0.150 HD
BRANCH  58  60
ATOM     60  CA  ARG A   9      10.322   1.638  -1.608  0.00  0.00    +0.137 C 
BRANCH  60  61
ATOM     61  C   ARG A   9      10.119   1.963  -0.126  0.00  0.00    +0.227 C 
ATOM     62  O   ARG A   9       9.920   3.121   0.206  0.00  0.00    -0.286 OA
ENDBRANCH  60  61
BRANCH  60  63
ATOM     63  CB  ARG A   9       8.971   1.465  -2.303  0.00  0.00    +0.031 C 
BRANCH  63  64
ATOM     64  CG  ARG A   9       9.110   1.429  -3.825  0.00  0.00    +0.045 C 
BRANCH  64  65
ATOM     65  CD  ARG A   9       7.740   1.480  -4.545  0.00  0.00    +0.174 C 
BRANCH  65  66
ATOM     66  NE  ARG A   9       6.926   0.306  -4.248  0.00  0.00    -0.265 N 
ATOM     67  CZ  ARG A   9       5.978   0.257  -3.316  0.00  0.00    +0.342 C 
ATOM     68  NH2 ARG A   9       5.691   1.326  -2.579  0.00  0.00    -0.292 N 
ATOM     69 HH21 ARG A   9       4.947   1.273  -1.854  0.00  0.00    +0.255 HD
ATOM     70 HH22 ARG A   9       6.210   2.215  -2.728  0.00  0.00    +0.255 HD
ATOM     71  NH1 ARG A   9       5.319  -0.874  -3.118  0.00  0.00    -0.292 N 
ATOM     72 HH11 ARG A   9       4.576  -0.923  -2.392  0.00  0.00    +0.255 HD
ATOM     73 HH12 ARG A   9       5.544  -1.714  -3.689  0.00  0.00    +0.255 HD
ATOM     74  HE  ARG A   9       7.100  -0.555  -4.805  0.00  0.00    +0.259 HD
ENDBRANCH  65  66
ENDBRANCH  64  65
ENDBRANCH  63  64
ENDBRANCH  60  63
ENDBRANCH  58  60
ENDBRANCH  55  56
ENDBRANCH  52  55
ENDBRANCH  50  51
BRANCH  50  75
ATOM     75  CB  ILE A   7      17.619   1.054  -1.385  0.00  0.00    +0.027 C 
ATOM     76  CG2 ILE A   7      16.822   1.938  -0.437  0.00  0.00    +0.002 C 
BRANCH  75  77
ATOM     77  CG1 ILE A   7      19.093   0.946  -0.975  0.00  0.00    +0.002 C 
ATOM     78  CD1 ILE A   7      19.283   0.160   0.336  0.00  0.00    +0.000 C 
ENDBRANCH  75  77
ENDBRANCH  50  75
ENDBRANCH  48  50
ENDBRANCH  45  46
BRANCH  45  79
ATOM     79  CB  ILE A   6      17.645  -4.455  -3.523  0.00  0.00    +0.027 C 
ATOM     80  CG2 ILE A   6      16.368  -3.758  -3.988  0.00  0.00    +0.002 C 
BRANCH  79  81
ATOM     81  CG1 ILE A   6      18.350  -5.180  -4.671  0.00  0.00    +0.002 C 
ATOM     82  CD1 ILE A   6      17.855  -6.604  -4.898  0.00  0.00    +0.000 C 
ENDBRANCH  79  81
ENDBRANCH  45  79
ENDBRANCH   2  45
TORSDOF 29
REMARK  Name = ../refined-set-2016/4qgi/4qgi_pocket.pdb
REMARK  229 active torsions:
REMARK  status: ('A' for Active; 'I' for Inactive)
REMARK    1  A    between atoms: _1  and  _3
REMARK    2  A    between atoms: _3  and  _4
REMARK    3  A    between atoms: _3  and  _6
REMARK    4  A    between atoms: _6  and  _7
REMARK    5  A    between atoms: _7  and  _8
REMARK    6  A    between atoms: _8  and  _9
REMARK    7  A    between atoms: _18  and  _20
REMARK    8  A    between atoms: _20  and  _21
REMARK    9  A    between atoms: _20  and  _23
REMARK   10  A    between atoms: _23  and  _24
REMARK   11  A    between atoms: _27  and  _29
REMARK   12  A    between atoms: _29  and  _30
REMARK   13  A    between atoms: _29  and  _32
REMARK   14  A    between atoms: _32  and  _33
REMARK   15  A    between atoms: _36  and  _38
REMARK   16  A    between atoms: _38  and  _39
REMARK   17  A    between atoms: _38  and  _41
REMARK   18  A    between atoms: _41  and  _42
REMARK   19  A    between atoms: _45  and  _47
REMARK   20  A    between atoms: _47  and  _48
REMARK   21  A    between atoms: _47  and  _50
REMARK   22  A    between atoms: _50  and  _51
REMARK   23  A    between atoms: _54  and  _56
REMARK   24  A    between atoms: _56  and  _57
REMARK   25  A    between atoms: _59  and  _61
REMARK   26  A    between atoms: _61  and  _62
REMARK   27  A    between atoms: _65  and  _67
REMARK   28  A    between atoms: _67  and  _68
REMARK   29  A    between atoms: _67  and  _70
REMARK   30  A    between atoms: _70  and  _71
REMARK   31  A    between atoms: _74  and  _76
REMARK   32  A    between atoms: _76  and  _77
REMARK   33  A    between atoms: _76  and  _79
REMARK   34  A    between atoms: _79  and  _80
REMARK   35  A    between atoms: _83  and  _85
REMARK   36  A    between atoms: _85  and  _86
REMARK   37  A    between atoms: _85  and  _88
REMARK   38  A    between atoms: _88  and  _89
REMARK   39  A    between atoms: _92  and  _94
REMARK   40  A    between atoms: _94  and  _95
REMARK   41  A    between atoms: _94  and  _97
REMARK   42  A    between atoms: _100  and  _102
REMARK   43  A    between atoms: _102  and  _103
REMARK   44  A    between atoms: _102  and  _105
REMARK   45  A    between atoms: _105  and  _106
REMARK   46  A    between atoms: _106  and  _107
REMARK   47  A    between atoms: _107  and  _108
REMARK   48  A    between atoms: _108  and  _109
REMARK   49  A    between atoms: _113  and  _115
REMARK   50  A    between atoms: _115  and  _116
REMARK   51  A    between atoms: _115  and  _118
REMARK   52  A    between atoms: _118  and  _119
REMARK   53  A    between atoms: _119  and  _120
REMARK   54  A    between atoms: _122  and  _124
REMARK   55  A    between atoms: _124  and  _125
REMARK   56  A    between atoms: _124  and  _127
REMARK   57  A    between atoms: _127  and  _128
REMARK   58  A    between atoms: _131  and  _133
REMARK   59  A    between atoms: _133  and  _134
REMARK   60  A    between atoms: _133  and  _136
REMARK   61  A    between atoms: _136  and  _137
REMARK   62  A    between atoms: _140  and  _142
REMARK   63  A    between atoms: _142  and  _143
REMARK   64  A    between atoms: _145  and  _147
REMARK   65  A    between atoms: _147  and  _148
REMARK   66  A    between atoms: _147  and  _150
REMARK   67  A    between atoms: _150  and  _151
REMARK   68  A    between atoms: _154  and  _156
REMARK   69  A    between atoms: _156  and  _157
REMARK   70  A    between atoms: _159  and  _161
REMARK   71  A    between atoms: _161  and  _162
REMARK   72  A    between atoms: _164  and  _166
REMARK   73  A    between atoms: _166  and  _167
REMARK   74  A    between atoms: _166  and  _169
REMARK   75  A    between atoms: _169  and  _170
REMARK   76  A    between atoms: _176  and  _178
REMARK   77  A    between atoms: _178  and  _179
REMARK   78  A    between atoms: _178  and  _181
REMARK   79  A    between atoms: _181  and  _182
REMARK   80  A    between atoms: _185  and  _187
REMARK   81  A    between atoms: _187  and  _188
REMARK   82  A    between atoms: _187  and  _190
REMARK   83  A    between atoms: _193  and  _195
REMARK   84  A    between atoms: _195  and  _196
REMARK   85  A    between atoms: _195  and  _198
REMARK   86  A    between atoms: _198  and  _199
REMARK   87  A    between atoms: _203  and  _204
REMARK   88  A    between atoms: _209  and  _211
REMARK   89  A    between atoms: _211  and  _212
REMARK   90  A    between atoms: _211  and  _214
REMARK   91  A    between atoms: _214  and  _215
REMARK   92  A    between atoms: _219  and  _220
REMARK   93  A    between atoms: _225  and  _227
REMARK   94  A    between atoms: _227  and  _228
REMARK   95  A    between atoms: _227  and  _230
REMARK   96  A    between atoms: _233  and  _235
REMARK   97  A    between atoms: _235  and  _236
REMARK   98  A    between atoms: _235  and  _238
REMARK   99  A    between atoms: _238  and  _239
REMARK  100  A    between atoms: _244  and  _246
REMARK  101  A    between atoms: _246  and  _247
REMARK  102  A    between atoms: _246  and  _249
REMARK  103  A    between atoms: _249  and  _250
REMARK  104  A    between atoms: _253  and  _255
REMARK  105  A    between atoms: _255  and  _256
REMARK  106  A    between atoms: _255  and  _258
REMARK  107  A    between atoms: _258  and  _259
REMARK  108  A    between atoms: _262  and  _264
REMARK  109  A    between atoms: _264  and  _265
REMARK  110  A    between atoms: _267  and  _269
REMARK  111  A    between atoms: _269  and  _270
REMARK  112  A    between atoms: _269  and  _272
REMARK  113  A    between atoms: _272  and  _273
REMARK  114  A    between atoms: _273  and  _274
REMARK  115  A    between atoms: _274  and  _275
REMARK  116  A    between atoms: _284  and  _286
REMARK  117  A    between atoms: _286  and  _287
REMARK  118  A    between atoms: _286  and  _289
REMARK  119  A    between atoms: _289  and  _290
REMARK  120  A    between atoms: _295  and  _297
REMARK  121  A    between atoms: _297  and  _298
REMARK  122  A    between atoms: _297  and  _300
REMARK  123  A    between atoms: _300  and  _301
REMARK  124  A    between atoms: _301  and  _302
REMARK  125  A    between atoms: _302  and  _303
REMARK  126  A    between atoms: _312  and  _314
REMARK  127  A    between atoms: _314  and  _315
REMARK  128  A    between atoms: _314  and  _317
REMARK  129  A    between atoms: _317  and  _318
REMARK  130  A    between atoms: _321  and  _323
REMARK  131  A    between atoms: _323  and  _324
REMARK  132  A    between atoms: _323  and  _326
REMARK  133  A    between atoms: _326  and  _327
REMARK  134  A    between atoms: _330  and  _332
REMARK  135  A    between atoms: _332  and  _333
REMARK  136  A    between atoms: _332  and  _335
REMARK  137  A    between atoms: _335  and  _336
REMARK  138  A    between atoms: _339  and  _341
REMARK  139  A    between atoms: _341  and  _342
REMARK  140  A    between atoms: _341  and  _344
REMARK  141  A    between atoms: _344  and  _345
REMARK  142  A    between atoms: _348  and  _350
REMARK  143  A    between atoms: _350  and  _351
REMARK  144  A    between atoms: _353  and  _355
REMARK  145  A    between atoms: _355  and  _356
REMARK  146  A    between atoms: _359  and  _361
REMARK  147  A    between atoms: _361  and  _362
REMARK  148  A    between atoms: _361  and  _364
REMARK  149  A    between atoms: _364  and  _365
REMARK  150  A    between atoms: _368  and  _370
REMARK  151  A    between atoms: _370  and  _371
REMARK  152  A    between atoms: _370  and  _373
REMARK  153  A    between atoms: _373  and  _374
REMARK  154  A    between atoms: _377  and  _379
REMARK  155  A    between atoms: _379  and  _380
REMARK  156  A    between atoms: _379  and  _382
REMARK  157  A    between atoms: _382  and  _383
REMARK  158  A    between atoms: _386  and  _388
REMARK  159  A    between atoms: _388  and  _389
REMARK  160  A    between atoms: _388  and  _391
REMARK  161  A    between atoms: _394  and  _396
REMARK  162  A    between atoms: _396  and  _397
REMARK  163  A    between atoms: _396  and  _399
REMARK  164  A    between atoms: _399  and  _400
REMARK  165  A    between atoms: _403  and  _405
REMARK  166  A    between atoms: _405  and  _406
REMARK  167  A    between atoms: _405  and  _408
REMARK  168  A    between atoms: _408  and  _409
REMARK  169  A    between atoms: _409  and  _410
REMARK  170  A    between atoms: _410  and  _411
REMARK  171  A    between atoms: _411  and  _412
REMARK  172  A    between atoms: _416  and  _418
REMARK  173  A    between atoms: _418  and  _419
REMARK  174  A    between atoms: _418  and  _421
REMARK  175  A    between atoms: _421  and  _422
REMARK  176  A    between atoms: _425  and  _427
REMARK  177  A    between atoms: _427  and  _428
REMARK  178  A    between atoms: _427  and  _430
REMARK  179  A    between atoms: _430  and  _431
REMARK  180  A    between atoms: _434  and  _436
REMARK  181  A    between atoms: _436  and  _437
REMARK  182  A    between atoms: _439  and  _441
REMARK  183  A    between atoms: _441  and  _442
REMARK  184  A    between atoms: _441  and  _444
REMARK  185  A    between atoms: _444  and  _445
REMARK  186  A    between atoms: _448  and  _450
REMARK  187  A    between atoms: _450  and  _451
REMARK  188  A    between atoms: _453  and  _455
REMARK  189  A    between atoms: _455  and  _456
REMARK  190  A    between atoms: _458  and  _460
REMARK  191  A    between atoms: _460  and  _461
REMARK  192  A    between atoms: _460  and  _463
REMARK  193  A    between atoms: _463  and  _464
REMARK  194  A    between atoms: _467  and  _469
REMARK  195  A    between atoms: _469  and  _470
REMARK  196  A    between atoms: _469  and  _472
REMARK  197  A    between atoms: _475  and  _477
REMARK  198  A    between atoms: _477  and  _478
REMARK  199  A    between atoms: _477  and  _480
REMARK  200  A    between atoms: _480  and  _481
REMARK  201  A    between atoms: _485  and  _486
REMARK  202  A    between atoms: _491  and  _493
REMARK  203  A    between atoms: _493  and  _494
REMARK  204  A    between atoms: _493  and  _496
REMARK  205  A    between atoms: _496  and  _497
REMARK  206  A    between atoms: _501  and  _502
REMARK  207  A    between atoms: _507  and  _509
REMARK  208  A    between atoms: _509  and  _510
REMARK  209  A    between atoms: _509  and  _512
REMARK  210  A    between atoms: _515  and  _517
REMARK  211  A    between atoms: _517  and  _518
REMARK  212  A    between atoms: _517  and  _520
REMARK  213  A    between atoms: _520  and  _521
REMARK  214  A    between atoms: _526  and  _528
REMARK  215  A    between atoms: _528  and  _529
REMARK  216  A    between atoms: _528  and  _531
REMARK  217  A    between atoms: _531  and  _532
REMARK  218  A    between atoms: _535  and  _537
REMARK  219  A    between atoms: _537  and  _538
REMARK  220  A    between atoms: _537  and  _540
REMARK  221  A    between atoms: _540  and  _541
REMARK  222  A    between atoms: _544  and  _546
REMARK  223  A    between atoms: _546  and  _547
REMARK  224  A    between atoms: _549  and  _551
REMARK  225  A    between atoms: _551  and  _552
REMARK  226  A    between atoms: _551  and  _554
REMARK  227  A    between atoms: _554  and  _555
REMARK  228  A    between atoms: _555  and  _556
REMARK  229  A    between atoms: _556  and  _557
REMARK                            x       y       z     vdW  Elec       q    Type
REMARK                         _______ _______ _______ _____ _____    ______ ____
ROOT
ATOM      1  O   HOH     1      13.380 -10.192  -8.949  0.00  0.00    +0.000 OA
ENDROOT
TORSDOF 0
REMARK  Name = ../refined-set-2016/4qgi/4qgi_pocket.pdb
REMARK  229 active torsions:
REMARK  status: ('A' for Active; 'I' for Inactive)
REMARK    1  A    between atoms: _1  and  _3
REMARK    2  A    between atoms: _3  and  _4
REMARK    3  A    between atoms: _3  and  _6
REMARK    4  A    between atoms: _6  and  _7
REMARK    5  A    between atoms: _7  and  _8
REMARK    6  A    between atoms: _8  and  _9
REMARK    7  A    between atoms: _18  and  _20
REMARK    8  A    between atoms: _20  and  _21
REMARK    9  A    between atoms: _20  and  _23
REMARK   10  A    between atoms: _23  and  _24
REMARK   11  A    between atoms: _27  and  _29
REMARK   12  A    between atoms: _29  and  _30
REMARK   13  A    between atoms: _29  and  _32
REMARK   14  A    between atoms: _32  and  _33
REMARK   15  A    between atoms: _36  and  _38
REMARK   16  A    between atoms: _38  and  _39
REMARK   17  A    between atoms: _38  and  _41
REMARK   18  A    between atoms: _41  and  _42
REMARK   19  A    between atoms: _45  and  _47
REMARK   20  A    between atoms: _47  and  _48
REMARK   21  A    between atoms: _47  and  _50
REMARK   22  A    between atoms: _50  and  _51
REMARK   23  A    between atoms: _54  and  _56
REMARK   24  A    between atoms: _56  and  _57
REMARK   25  A    between atoms: _59  and  _61
REMARK   26  A    between atoms: _61  and  _62
REMARK   27  A    between atoms: _65  and  _67
REMARK   28  A    between atoms: _67  and  _68
REMARK   29  A    between atoms: _67  and  _70
REMARK   30  A    between atoms: _70  and  _71
REMARK   31  A    between atoms: _74  and  _76
REMARK   32  A    between atoms: _76  and  _77
REMARK   33  A    between atoms: _76  and  _79
REMARK   34  A    between atoms: _79  and  _80
REMARK   35  A    between atoms: _83  and  _85
REMARK   36  A    between atoms: _85  and  _86
REMARK   37  A    between atoms: _85  and  _88
REMARK   38  A    between atoms: _88  and  _89
REMARK   39  A    between atoms: _92  and  _94
REMARK   40  A    between atoms: _94  and  _95
REMARK   41  A    between atoms: _94  and  _97
REMARK   42  A    between atoms: _100  and  _102
REMARK   43  A    between atoms: _102  and  _103
REMARK   44  A    between atoms: _102  and  _105
REMARK   45  A    between atoms: _105  and  _106
REMARK   46  A    between atoms: _106  and  _107
REMARK   47  A    between atoms: _107  and  _108
REMARK   48  A    between atoms: _108  and  _109
REMARK   49  A    between atoms: _113  and  _115
REMARK   50  A    between atoms: _115  and  _116
REMARK   51  A    between atoms: _115  and  _118
REMARK   52  A    between atoms: _118  and  _119
REMARK   53  A    between atoms: _119  and  _120
REMARK   54  A    between atoms: _122  and  _124
REMARK   55  A    between atoms: _124  and  _125
REMARK   56  A    between atoms: _124  and  _127
REMARK   57  A    between atoms: _127  and  _128
REMARK   58  A    between atoms: _131  and  _133
REMARK   59  A    between atoms: _133  and  _134
REMARK   60  A    between atoms: _133  and  _136
REMARK   61  A    between atoms: _136  and  _137
REMARK   62  A    between atoms: _140  and  _142
REMARK   63  A    between atoms: _142  and  _143
REMARK   64  A    between atoms: _145  and  _147
REMARK   65  A    between atoms: _147  and  _148
REMARK   66  A    between atoms: _147  and  _150
REMARK   67  A    between atoms: _150  and  _151
REMARK   68  A    between atoms: _154  and  _156
REMARK   69  A    between atoms: _156  and  _157
REMARK   70  A    between atoms: _159  and  _161
REMARK   71  A    between atoms: _161  and  _162
REMARK   72  A    between atoms: _164  and  _166
REMARK   73  A    between atoms: _166  and  _167
REMARK   74  A    between atoms: _166  and  _169
REMARK   75  A    between atoms: _169  and  _170
REMARK   76  A    between atoms: _176  and  _178
REMARK   77  A    between atoms: _178  and  _179
REMARK   78  A    between atoms: _178  and  _181
REMARK   79  A    between atoms: _181  and  _182
REMARK   80  A    between atoms: _185  and  _187
REMARK   81  A    between atoms: _187  and  _188
REMARK   82  A    between atoms: _187  and  _190
REMARK   83  A    between atoms: _193  and  _195
REMARK   84  A    between atoms: _195  and  _196
REMARK   85  A    between atoms: _195  and  _198
REMARK   86  A    between atoms: _198  and  _199
REMARK   87  A    between atoms: _203  and  _204
REMARK   88  A    between atoms: _209  and  _211
REMARK   89  A    between atoms: _211  and  _212
REMARK   90  A    between atoms: _211  and  _214
REMARK   91  A    between atoms: _214  and  _215
REMARK   92  A    between atoms: _219  and  _220
REMARK   93  A    between atoms: _225  and  _227
REMARK   94  A    between atoms: _227  and  _228
REMARK   95  A    between atoms: _227  and  _230
REMARK   96  A    between atoms: _233  and  _235
REMARK   97  A    between atoms: _235  and  _236
REMARK   98  A    between atoms: _235  and  _238
REMARK   99  A    between atoms: _238  and  _239
REMARK  100  A    between atoms: _244  and  _246
REMARK  101  A    between atoms: _246  and  _247
REMARK  102  A    between atoms: _246  and  _249
REMARK  103  A    between atoms: _249  and  _250
REMARK  104  A    between atoms: _253  and  _255
REMARK  105  A    between atoms: _255  and  _256
REMARK  106  A    between atoms: _255  and  _258
REMARK  107  A    between atoms: _258  and  _259
REMARK  108  A    between atoms: _262  and  _264
REMARK  109  A    between atoms: _264  and  _265
REMARK  110  A    between atoms: _267  and  _269
REMARK  111  A    between atoms: _269  and  _270
REMARK  112  A    between atoms: _269  and  _272
REMARK  113  A    between atoms: _272  and  _273
REMARK  114  A    between atoms: _273  and  _274
REMARK  115  A    between atoms: _274  and  _275
REMARK  116  A    between atoms: _284  and  _286
REMARK  117  A    between atoms: _286  and  _287
REMARK  118  A    between atoms: _286  and  _289
REMARK  119  A    between atoms: _289  and  _290
REMARK  120  A    between atoms: _295  and  _297
REMARK  121  A    between atoms: _297  and  _298
REMARK  122  A    between atoms: _297  and  _300
REMARK  123  A    between atoms: _300  and  _301
REMARK  124  A    between atoms: _301  and  _302
REMARK  125  A    between atoms: _302  and  _303
REMARK  126  A    between atoms: _312  and  _314
REMARK  127  A    between atoms: _314  and  _315
REMARK  128  A    between atoms: _314  and  _317
REMARK  129  A    between atoms: _317  and  _318
REMARK  130  A    between atoms: _321  and  _323
REMARK  131  A    between atoms: _323  and  _324
REMARK  132  A    between atoms: _323  and  _326
REMARK  133  A    between atoms: _326  and  _327
REMARK  134  A    between atoms: _330  and  _332
REMARK  135  A    between atoms: _332  and  _333
REMARK  136  A    between atoms: _332  and  _335
REMARK  137  A    between atoms: _335  and  _336
REMARK  138  A    between atoms: _339  and  _341
REMARK  139  A    between atoms: _341  and  _342
REMARK  140  A    between atoms: _341  and  _344
REMARK  141  A    between atoms: _344  and  _345
REMARK  142  A    between atoms: _348  and  _350
REMARK  143  A    between atoms: _350  and  _351
REMARK  144  A    between atoms: _353  and  _355
REMARK  145  A    between atoms: _355  and  _356
REMARK  146  A    between atoms: _359  and  _361
REMARK  147  A    between atoms: _361  and  _362
REMARK  148  A    between atoms: _361  and  _364
REMARK  149  A    between atoms: _364  and  _365
REMARK  150  A    between atoms: _368  and  _370
REMARK  151  A    between atoms: _370  and  _371
REMARK  152  A    between atoms: _370  and  _373
REMARK  153  A    between atoms: _373  and  _374
REMARK  154  A    between atoms: _377  and  _379
REMARK  155  A    between atoms: _379  and  _380
REMARK  156  A    between atoms: _379  and  _382
REMARK  157  A    between atoms: _382  and  _383
REMARK  158  A    between atoms: _386  and  _388
REMARK  159  A    between atoms: _388  and  _389
REMARK  160  A    between atoms: _388  and  _391
REMARK  161  A    between atoms: _394  and  _396
REMARK  162  A    between atoms: _396  and  _397
REMARK  163  A    between atoms: _396  and  _399
REMARK  164  A    between atoms: _399  and  _400
REMARK  165  A    between atoms: _403  and  _405
REMARK  166  A    between atoms: _405  and  _406
REMARK  167  A    between atoms: _405  and  _408
REMARK  168  A    between atoms: _408  and  _409
REMARK  169  A    between atoms: _409  and  _410
REMARK  170  A    between atoms: _410  and  _411
REMARK  171  A    between atoms: _411  and  _412
REMARK  172  A    between atoms: _416  and  _418
REMARK  173  A    between atoms: _418  and  _419
REMARK  174  A    between atoms: _418  and  _421
REMARK  175  A    between atoms: _421  and  _422
REMARK  176  A    between atoms: _425  and  _427
REMARK  177  A    between atoms: _427  and  _428
REMARK  178  A    between atoms: _427  and  _430
REMARK  179  A    between atoms: _430  and  _431
REMARK  180  A    between atoms: _434  and  _436
REMARK  181  A    between atoms: _436  and  _437
REMARK  182  A    between atoms: _439  and  _441
REMARK  183  A    between atoms: _441  and  _442
REMARK  184  A    between atoms: _441  and  _444
REMARK  185  A    between atoms: _444  and  _445
REMARK  186  A    between atoms: _448  and  _450
REMARK  187  A    between atoms: _450  and  _451
REMARK  188  A    between atoms: _453  and  _455
REMARK  189  A    between atoms: _455  and  _456
REMARK  190  A    between atoms: _458  and  _460
REMARK  191  A    between atoms: _460  and  _461
REMARK  192  A    between atoms: _460  and  _463
REMARK  193  A    between atoms: _463  and  _464
REMARK  194  A    between atoms: _467  and  _469
REMARK  195  A    between atoms: _469  and  _470
REMARK  196  A    between atoms: _469  and  _472
REMARK  197  A    between atoms: _475  and  _477
REMARK  198  A    between atoms: _477  and  _478
REMARK  199  A    between atoms: _477  and  _480
REMARK  200  A    between atoms: _480  and  _481
REMARK  201  A    between atoms: _485  and  _486
REMARK  202  A    between atoms: _491  and  _493
REMARK  203  A    between atoms: _493  and  _494
REMARK  204  A    between atoms: _493  and  _496
REMARK  205  A    between atoms: _496  and  _497
REMARK  206  A    between atoms: _501  and  _502
REMARK  207  A    between atoms: _507  and  _509
REMARK  208  A    between atoms: _509  and  _510
REMARK  209  A    between atoms: _509  and  _512
REMARK  210  A    between atoms: _515  and  _517
REMARK  211  A    between atoms: _517  and  _518
REMARK  212  A    between atoms: _517  and  _520
REMARK  213  A    between atoms: _520  and  _521
REMARK  214  A    between atoms: _526  and  _528
REMARK  215  A    between atoms: _528  and  _529
REMARK  216  A    between atoms: _528  and  _531
REMARK  217  A    between atoms: _531  and  _532
REMARK  218  A    between atoms: _535  and  _537
REMARK  219  A    between atoms: _537  and  _538
REMARK  220  A    between atoms: _537  and  _540
REMARK  221  A    between atoms: _540  and  _541
REMARK  222  A    between atoms: _544  and  _546
REMARK  223  A    between atoms: _546  and  _547
REMARK  224  A    between atoms: _549  and  _551
REMARK  225  A    between atoms: _551  and  _552
REMARK  226  A    between atoms: _551  and  _554
REMARK  227  A    between atoms: _554  and  _555
REMARK  228  A    between atoms: _555  and  _556
REMARK  229  A    between atoms: _556  and  _557
REMARK                            x       y       z     vdW  Elec       q    Type
REMARK                         _______ _______ _______ _____ _____    ______ ____
ROOT
ATOM      1  O   HOH     1      19.779  -4.263 -12.088  0.00  0.00    +0.000 OA
ENDROOT
TORSDOF 0
REMARK  Name = ../refined-set-2016/4qgi/4qgi_pocket.pdb
REMARK  229 active torsions:
REMARK  status: ('A' for Active; 'I' for Inactive)
REMARK    1  A    between atoms: _1  and  _3
REMARK    2  A    between atoms: _3  and  _4
REMARK    3  A    between atoms: _3  and  _6
REMARK    4  A    between atoms: _6  and  _7
REMARK    5  A    between atoms: _7  and  _8
REMARK    6  A    between atoms: _8  and  _9
REMARK    7  A    between atoms: _18  and  _20
REMARK    8  A    between atoms: _20  and  _21
REMARK    9  A    between atoms: _20  and  _23
REMARK   10  A    between atoms: _23  and  _24
REMARK   11  A    between atoms: _27  and  _29
REMARK   12  A    between atoms: _29  and  _30
REMARK   13  A    between atoms: _29  and  _32
REMARK   14  A    between atoms: _32  and  _33
REMARK   15  A    between atoms: _36  and  _38
REMARK   16  A    between atoms: _38  and  _39
REMARK   17  A    between atoms: _38  and  _41
REMARK   18  A    between atoms: _41  and  _42
REMARK   19  A    between atoms: _45  and  _47
REMARK   20  A    between atoms: _47  and  _48
REMARK   21  A    between atoms: _47  and  _50
REMARK   22  A    between atoms: _50  and  _51
REMARK   23  A    between atoms: _54  and  _56
REMARK   24  A    between atoms: _56  and  _57
REMARK   25  A    between atoms: _59  and  _61
REMARK   26  A    between atoms: _61  and  _62
REMARK   27  A    between atoms: _65  and  _67
REMARK   28  A    between atoms: _67  and  _68
REMARK   29  A    between atoms: _67  and  _70
REMARK   30  A    between atoms: _70  and  _71
REMARK   31  A    between atoms: _74  and  _76
REMARK   32  A    between atoms: _76  and  _77
REMARK   33  A    between atoms: _76  and  _79
REMARK   34  A    between atoms: _79  and  _80
REMARK   35  A    between atoms: _83  and  _85
REMARK   36  A    between atoms: _85  and  _86
REMARK   37  A    between atoms: _85  and  _88
REMARK   38  A    between atoms: _88  and  _89
REMARK   39  A    between atoms: _92  and  _94
REMARK   40  A    between atoms: _94  and  _95
REMARK   41  A    between atoms: _94  and  _97
REMARK   42  A    between atoms: _100  and  _102
REMARK   43  A    between atoms: _102  and  _103
REMARK   44  A    between atoms: _102  and  _105
REMARK   45  A    between atoms: _105  and  _106
REMARK   46  A    between atoms: _106  and  _107
REMARK   47  A    between atoms: _107  and  _108
REMARK   48  A    between atoms: _108  and  _109
REMARK   49  A    between atoms: _113  and  _115
REMARK   50  A    between atoms: _115  and  _116
REMARK   51  A    between atoms: _115  and  _118
REMARK   52  A    between atoms: _118  and  _119
REMARK   53  A    between atoms: _119  and  _120
REMARK   54  A    between atoms: _122  and  _124
REMARK   55  A    between atoms: _124  and  _125
REMARK   56  A    between atoms: _124  and  _127
REMARK   57  A    between atoms: _127  and  _128
REMARK   58  A    between atoms: _131  and  _133
REMARK   59  A    between atoms: _133  and  _134
REMARK   60  A    between atoms: _133  and  _136
REMARK   61  A    between atoms: _136  and  _137
REMARK   62  A    between atoms: _140  and  _142
REMARK   63  A    between atoms: _142  and  _143
REMARK   64  A    between atoms: _145  and  _147
REMARK   65  A    between atoms: _147  and  _148
REMARK   66  A    between atoms: _147  and  _150
REMARK   67  A    between atoms: _150  and  _151
REMARK   68  A    between atoms: _154  and  _156
REMARK   69  A    between atoms: _156  and  _157
REMARK   70  A    between atoms: _159  and  _161
REMARK   71  A    between atoms: _161  and  _162
REMARK   72  A    between atoms: _164  and  _166
REMARK   73  A    between atoms: _166  and  _167
REMARK   74  A    between atoms: _166  and  _169
REMARK   75  A    between atoms: _169  and  _170
REMARK   76  A    between atoms: _176  and  _178
REMARK   77  A    between atoms: _178  and  _179
REMARK   78  A    between atoms: _178  and  _181
REMARK   79  A    between atoms: _181  and  _182
REMARK   80  A    between atoms: _185  and  _187
REMARK   81  A    between atoms: _187  and  _188
REMARK   82  A    between atoms: _187  and  _190
REMARK   83  A    between atoms: _193  and  _195
REMARK   84  A    between atoms: _195  and  _196
REMARK   85  A    between atoms: _195  and  _198
REMARK   86  A    between atoms: _198  and  _199
REMARK   87  A    between atoms: _203  and  _204
REMARK   88  A    between atoms: _209  and  _211
REMARK   89  A    between atoms: _211  and  _212
REMARK   90  A    between atoms: _211  and  _214
REMARK   91  A    between atoms: _214  and  _215
REMARK   92  A    between atoms: _219  and  _220
REMARK   93  A    between atoms: _225  and  _227
REMARK   94  A    between atoms: _227  and  _228
REMARK   95  A    between atoms: _227  and  _230
REMARK   96  A    between atoms: _233  and  _235
REMARK   97  A    between atoms: _235  and  _236
REMARK   98  A    between atoms: _235  and  _238
REMARK   99  A    between atoms: _238  and  _239
REMARK  100  A    between atoms: _244  and  _246
REMARK  101  A    between atoms: _246  and  _247
REMARK  102  A    between atoms: _246  and  _249
REMARK  103  A    between atoms: _249  and  _250
REMARK  104  A    between atoms: _253  and  _255
REMARK  105  A    between atoms: _255  and  _256
REMARK  106  A    between atoms: _255  and  _258
REMARK  107  A    between atoms: _258  and  _259
REMARK  108  A    between atoms: _262  and  _264
REMARK  109  A    between atoms: _264  and  _265
REMARK  110  A    between atoms: _267  and  _269
REMARK  111  A    between atoms: _269  and  _270
REMARK  112  A    between atoms: _269  and  _272
REMARK  113  A    between atoms: _272  and  _273
REMARK  114  A    between atoms: _273  and  _274
REMARK  115  A    between atoms: _274  and  _275
REMARK  116  A    between atoms: _284  and  _286
REMARK  117  A    between atoms: _286  and  _287
REMARK  118  A    between atoms: _286  and  _289
REMARK  119  A    between atoms: _289  and  _290
REMARK  120  A    between atoms: _295  and  _297
REMARK  121  A    between atoms: _297  and  _298
REMARK  122  A    between atoms: _297  and  _300
REMARK  123  A    between atoms: _300  and  _301
REMARK  124  A    between atoms: _301  and  _302
REMARK  125  A    between atoms: _302  and  _303
REMARK  126  A    between atoms: _312  and  _314
REMARK  127  A    between atoms: _314  and  _315
REMARK  128  A    between atoms: _314  and  _317
REMARK  129  A    between atoms: _317  and  _318
REMARK  130  A    between atoms: _321  and  _323
REMARK  131  A    between atoms: _323  and  _324
REMARK  132  A    between atoms: _323  and  _326
REMARK  133  A    between atoms: _326  and  _327
REMARK  134  A    between atoms: _330  and  _332
REMARK  135  A    between atoms: _332  and  _333
REMARK  136  A    between atoms: _332  and  _335
REMARK  137  A    between atoms: _335  and  _336
REMARK  138  A    between atoms: _339  and  _341
REMARK  139  A    between atoms: _341  and  _342
REMARK  140  A    between atoms: _341  and  _344
REMARK  141  A    between atoms: _344  and  _345
REMARK  142  A    between atoms: _348  and  _350
REMARK  143  A    between atoms: _350  and  _351
REMARK  144  A    between atoms: _353  and  _355
REMARK  145  A    between atoms: _355  and  _356
REMARK  146  A    between atoms: _359  and  _361
REMARK  147  A    between atoms: _361  and  _362
REMARK  148  A    between atoms: _361  and  _364
REMARK  149  A    between atoms: _364  and  _365
REMARK  150  A    between atoms: _368  and  _370
REMARK  151  A    between atoms: _370  and  _371
REMARK  152  A    between atoms: _370  and  _373
REMARK  153  A    between atoms: _373  and  _374
REMARK  154  A    between atoms: _377  and  _379
REMARK  155  A    between atoms: _379  and  _380
REMARK  156  A    between atoms: _379  and  _382
REMARK  157  A    between atoms: _382  and  _383
REMARK  158  A    between atoms: _386  and  _388
REMARK  159  A    between atoms: _388  and  _389
REMARK  160  A    between atoms: _388  and  _391
REMARK  161  A    between atoms: _394  and  _396
REMARK  162  A    between atoms: _396  and  _397
REMARK  163  A    between atoms: _396  and  _399
REMARK  164  A    between atoms: _399  and  _400
REMARK  165  A    between atoms: _403  and  _405
REMARK  166  A    between atoms: _405  and  _406
REMARK  167  A    between atoms: _405  and  _408
REMARK  168  A    between atoms: _408  and  _409
REMARK  169  A    between atoms: _409  and  _410
REMARK  170  A    between atoms: _410  and  _411
REMARK  171  A    between atoms: _411  and  _412
REMARK  172  A    between atoms: _416  and  _418
REMARK  173  A    between atoms: _418  and  _419
REMARK  174  A    between atoms: _418  and  _421
REMARK  175  A    between atoms: _421  and  _422
REMARK  176  A    between atoms: _425  and  _427
REMARK  177  A    between atoms: _427  and  _428
REMARK  178  A    between atoms: _427  and  _430
REMARK  179  A    between atoms: _430  and  _431
REMARK  180  A    between atoms: _434  and  _436
REMARK  181  A    between atoms: _436  and  _437
REMARK  182  A    between atoms: _439  and  _441
REMARK  183  A    between atoms: _441  and  _442
REMARK  184  A    between atoms: _441  and  _444
REMARK  185  A    between atoms: _444  and  _445
REMARK  186  A    between atoms: _448  and  _450
REMARK  187  A    between atoms: _450  and  _451
REMARK  188  A    between atoms: _453  and  _455
REMARK  189  A    between atoms: _455  and  _456
REMARK  190  A    between atoms: _458  and  _460
REMARK  191  A    between atoms: _460  and  _461
REMARK  192  A    between atoms: _460  and  _463
REMARK  193  A    between atoms: _463  and  _464
REMARK  194  A    between atoms: _467  and  _469
REMARK  195  A    between atoms: _469  and  _470
REMARK  196  A    between atoms: _469  and  _472
REMARK  197  A    between atoms: _475  and  _477
REMARK  198  A    between atoms: _477  and  _478
REMARK  199  A    between atoms: _477  and  _480
REMARK  200  A    between atoms: _480  and  _481
REMARK  201  A    between atoms: _485  and  _486
REMARK  202  A    between atoms: _491  and  _493
REMARK  203  A    between atoms: _493  and  _494
REMARK  204  A    between atoms: _493  and  _496
REMARK  205  A    between atoms: _496  and  _497
REMARK  206  A    between atoms: _501  and  _502
REMARK  207  A    between atoms: _507  and  _509
REMARK  208  A    between atoms: _509  and  _510
REMARK  209  A    between atoms: _509  and  _512
REMARK  210  A    between atoms: _515  and  _517
REMARK  211  A    between atoms: _517  and  _518
REMARK  212  A    between atoms: _517  and  _520
REMARK  213  A    between atoms: _520  and  _521
REMARK  214  A    between atoms: _526  and  _528
REMARK  215  A    between atoms: _528  and  _529
REMARK  216  A    between atoms: _528  and  _531
REMARK  217  A    between atoms: _531  and  _532
REMARK  218  A    between atoms: _535  and  _537
REMARK  219  A    between atoms: _537  and  _538
REMARK  220  A    between atoms: _537  and  _540
REMARK  221  A    between atoms: _540  and  _541
REMARK  222  A    between atoms: _544  and  _546
REMARK  223  A    between atoms: _546  and  _547
REMARK  224  A    between atoms: _549  and  _551
REMARK  225  A    between atoms: _551  and  _552
REMARK  226  A    between atoms: _551  and  _554
REMARK  227  A    between atoms: _554  and  _555
REMARK  228  A    between atoms: _555  and  _556
REMARK  229  A    between atoms: _556  and  _557
REMARK                            x       y       z     vdW  Elec       q    Type
REMARK                         _______ _______ _______ _____ _____    ______ ____
ROOT
ATOM      1  O   HOH     1      19.255  -1.592 -12.515  0.00  0.00    +0.000 OA
ENDROOT
TORSDOF 0
REMARK  Name = ../refined-set-2016/4qgi/4qgi_pocket.pdb
REMARK  229 active torsions:
REMARK  status: ('A' for Active; 'I' for Inactive)
REMARK    1  A    between atoms: _1  and  _3
REMARK    2  A    between atoms: _3  and  _4
REMARK    3  A    between atoms: _3  and  _6
REMARK    4  A    between atoms: _6  and  _7
REMARK    5  A    between atoms: _7  and  _8
REMARK    6  A    between atoms: _8  and  _9
REMARK    7  A    between atoms: _18  and  _20
REMARK    8  A    between atoms: _20  and  _21
REMARK    9  A    between atoms: _20  and  _23
REMARK   10  A    between atoms: _23  and  _24
REMARK   11  A    between atoms: _27  and  _29
REMARK   12  A    between atoms: _29  and  _30
REMARK   13  A    between atoms: _29  and  _32
REMARK   14  A    between atoms: _32  and  _33
REMARK   15  A    between atoms: _36  and  _38
REMARK   16  A    between atoms: _38  and  _39
REMARK   17  A    between atoms: _38  and  _41
REMARK   18  A    between atoms: _41  and  _42
REMARK   19  A    between atoms: _45  and  _47
REMARK   20  A    between atoms: _47  and  _48
REMARK   21  A    between atoms: _47  and  _50
REMARK   22  A    between atoms: _50  and  _51
REMARK   23  A    between atoms: _54  and  _56
REMARK   24  A    between atoms: _56  and  _57
REMARK   25  A    between atoms: _59  and  _61
REMARK   26  A    between atoms: _61  and  _62
REMARK   27  A    between atoms: _65  and  _67
REMARK   28  A    between atoms: _67  and  _68
REMARK   29  A    between atoms: _67  and  _70
REMARK   30  A    between atoms: _70  and  _71
REMARK   31  A    between atoms: _74  and  _76
REMARK   32  A    between atoms: _76  and  _77
REMARK   33  A    between atoms: _76  and  _79
REMARK   34  A    between atoms: _79  and  _80
REMARK   35  A    between atoms: _83  and  _85
REMARK   36  A    between atoms: _85  and  _86
REMARK   37  A    between atoms: _85  and  _88
REMARK   38  A    between atoms: _88  and  _89
REMARK   39  A    between atoms: _92  and  _94
REMARK   40  A    between atoms: _94  and  _95
REMARK   41  A    between atoms: _94  and  _97
REMARK   42  A    between atoms: _100  and  _102
REMARK   43  A    between atoms: _102  and  _103
REMARK   44  A    between atoms: _102  and  _105
REMARK   45  A    between atoms: _105  and  _106
REMARK   46  A    between atoms: _106  and  _107
REMARK   47  A    between atoms: _107  and  _108
REMARK   48  A    between atoms: _108  and  _109
REMARK   49  A    between atoms: _113  and  _115
REMARK   50  A    between atoms: _115  and  _116
REMARK   51  A    between atoms: _115  and  _118
REMARK   52  A    between atoms: _118  and  _119
REMARK   53  A    between atoms: _119  and  _120
REMARK   54  A    between atoms: _122  and  _124
REMARK   55  A    between atoms: _124  and  _125
REMARK   56  A    between atoms: _124  and  _127
REMARK   57  A    between atoms: _127  and  _128
REMARK   58  A    between atoms: _131  and  _133
REMARK   59  A    between atoms: _133  and  _134
REMARK   60  A    between atoms: _133  and  _136
REMARK   61  A    between atoms: _136  and  _137
REMARK   62  A    between atoms: _140  and  _142
REMARK   63  A    between atoms: _142  and  _143
REMARK   64  A    between atoms: _145  and  _147
REMARK   65  A    between atoms: _147  and  _148
REMARK   66  A    between atoms: _147  and  _150
REMARK   67  A    between atoms: _150  and  _151
REMARK   68  A    between atoms: _154  and  _156
REMARK   69  A    between atoms: _156  and  _157
REMARK   70  A    between atoms: _159  and  _161
REMARK   71  A    between atoms: _161  and  _162
REMARK   72  A    between atoms: _164  and  _166
REMARK   73  A    between atoms: _166  and  _167
REMARK   74  A    between atoms: _166  and  _169
REMARK   75  A    between atoms: _169  and  _170
REMARK   76  A    between atoms: _176  and  _178
REMARK   77  A    between atoms: _178  and  _179
REMARK   78  A    between atoms: _178  and  _181
REMARK   79  A    between atoms: _181  and  _182
REMARK   80  A    between atoms: _185  and  _187
REMARK   81  A    between atoms: _187  and  _188
REMARK   82  A    between atoms: _187  and  _190
REMARK   83  A    between atoms: _193  and  _195
REMARK   84  A    between atoms: _195  and  _196
REMARK   85  A    between atoms: _195  and  _198
REMARK   86  A    between atoms: _198  and  _199
REMARK   87  A    between atoms: _203  and  _204
REMARK   88  A    between atoms: _209  and  _211
REMARK   89  A    between atoms: _211  and  _212
REMARK   90  A    between atoms: _211  and  _214
REMARK   91  A    between atoms: _214  and  _215
REMARK   92  A    between atoms: _219  and  _220
REMARK   93  A    between atoms: _225  and  _227
REMARK   94  A    between atoms: _227  and  _228
REMARK   95  A    between atoms: _227  and  _230
REMARK   96  A    between atoms: _233  and  _235
REMARK   97  A    between atoms: _235  and  _236
REMARK   98  A    between atoms: _235  and  _238
REMARK   99  A    between atoms: _238  and  _239
REMARK  100  A    between atoms: _244  and  _246
REMARK  101  A    between atoms: _246  and  _247
REMARK  102  A    between atoms: _246  and  _249
REMARK  103  A    between atoms: _249  and  _250
REMARK  104  A    between atoms: _253  and  _255
REMARK  105  A    between atoms: _255  and  _256
REMARK  106  A    between atoms: _255  and  _258
REMARK  107  A    between atoms: _258  and  _259
REMARK  108  A    between atoms: _262  and  _264
REMARK  109  A    between atoms: _264  and  _265
REMARK  110  A    between atoms: _267  and  _269
REMARK  111  A    between atoms: _269  and  _270
REMARK  112  A    between atoms: _269  and  _272
REMARK  113  A    between atoms: _272  and  _273
REMARK  114  A    between atoms: _273  and  _274
REMARK  115  A    between atoms: _274  and  _275
REMARK  116  A    between atoms: _284  and  _286
REMARK  117  A    between atoms: _286  and  _287
REMARK  118  A    between atoms: _286  and  _289
REMARK  119  A    between atoms: _289  and  _290
REMARK  120  A    between atoms: _295  and  _297
REMARK  121  A    between atoms: _297  and  _298
REMARK  122  A    between atoms: _297  and  _300
REMARK  123  A    between atoms: _300  and  _301
REMARK  124  A    between atoms: _301  and  _302
REMARK  125  A    between atoms: _302  and  _303
REMARK  126  A    between atoms: _312  and  _314
REMARK  127  A    between atoms: _314  and  _315
REMARK  128  A    between atoms: _314  and  _317
REMARK  129  A    between atoms: _317  and  _318
REMARK  130  A    between atoms: _321  and  _323
REMARK  131  A    between atoms: _323  and  _324
REMARK  132  A    between atoms: _323  and  _326
REMARK  133  A    between atoms: _326  and  _327
REMARK  134  A    between atoms: _330  and  _332
REMARK  135  A    between atoms: _332  and  _333
REMARK  136  A    between atoms: _332  and  _335
REMARK  137  A    between atoms: _335  and  _336
REMARK  138  A    between atoms: _339  and  _341
REMARK  139  A    between atoms: _341  and  _342
REMARK  140  A    between atoms: _341  and  _344
REMARK  141  A    between atoms: _344  and  _345
REMARK  142  A    between atoms: _348  and  _350
REMARK  143  A    between atoms: _350  and  _351
REMARK  144  A    between atoms: _353  and  _355
REMARK  145  A    between atoms: _355  and  _356
REMARK  146  A    between atoms: _359  and  _361
REMARK  147  A    between atoms: _361  and  _362
REMARK  148  A    between atoms: _361  and  _364
REMARK  149  A    between atoms: _364  and  _365
REMARK  150  A    between atoms: _368  and  _370
REMARK  151  A    between atoms: _370  and  _371
REMARK  152  A    between atoms: _370  and  _373
REMARK  153  A    between atoms: _373  and  _374
REMARK  154  A    between atoms: _377  and  _379
REMARK  155  A    between atoms: _379  and  _380
REMARK  156  A    between atoms: _379  and  _382
REMARK  157  A    between atoms: _382  and  _383
REMARK  158  A    between atoms: _386  and  _388
REMARK  159  A    between atoms: _388  and  _389
REMARK  160  A    between atoms: _388  and  _391
REMARK  161  A    between atoms: _394  and  _396
REMARK  162  A    between atoms: _396  and  _397
REMARK  163  A    between atoms: _396  and  _399
REMARK  164  A    between atoms: _399  and  _400
REMARK  165  A    between atoms: _403  and  _405
REMARK  166  A    between atoms: _405  and  _406
REMARK  167  A    between atoms: _405  and  _408
REMARK  168  A    between atoms: _408  and  _409
REMARK  169  A    between atoms: _409  and  _410
REMARK  170  A    between atoms: _410  and  _411
REMARK  171  A    between atoms: _411  and  _412
REMARK  172  A    between atoms: _416  and  _418
REMARK  173  A    between atoms: _418  and  _419
REMARK  174  A    between atoms: _418  and  _421
REMARK  175  A    between atoms: _421  and  _422
REMARK  176  A    between atoms: _425  and  _427
REMARK  177  A    between atoms: _427  and  _428
REMARK  178  A    between atoms: _427  and  _430
REMARK  179  A    between atoms: _430  and  _431
REMARK  180  A    between atoms: _434  and  _436
REMARK  181  A    between atoms: _436  and  _437
REMARK  182  A    between atoms: _439  and  _441
REMARK  183  A    between atoms: _441  and  _442
REMARK  184  A    between atoms: _441  and  _444
REMARK  185  A    between atoms: _444  and  _445
REMARK  186  A    between atoms: _448  and  _450
REMARK  187  A    between atoms: _450  and  _451
REMARK  188  A    between atoms: _453  and  _455
REMARK  189  A    between atoms: _455  and  _456
REMARK  190  A    between atoms: _458  and  _460
REMARK  191  A    between atoms: _460  and  _461
REMARK  192  A    between atoms: _460  and  _463
REMARK  193  A    between atoms: _463  and  _464
REMARK  194  A    between atoms: _467  and  _469
REMARK  195  A    between atoms: _469  and  _470
REMARK  196  A    between atoms: _469  and  _472
REMARK  197  A    between atoms: _475  and  _477
REMARK  198  A    between atoms: _477  and  _478
REMARK  199  A    between atoms: _477  and  _480
REMARK  200  A    between atoms: _480  and  _481
REMARK  201  A    between atoms: _485  and  _486
REMARK  202  A    between atoms: _491  and  _493
REMARK  203  A    between atoms: _493  and  _494
REMARK  204  A    between atoms: _493  and  _496
REMARK  205  A    between atoms: _496  and  _497
REMARK  206  A    between atoms: _501  and  _502
REMARK  207  A    between atoms: _507  and  _509
REMARK  208  A    between atoms: _509  and  _510
REMARK  209  A    between atoms: _509  and  _512
REMARK  210  A    between atoms: _515  and  _517
REMARK  211  A    between atoms: _517  and  _518
REMARK  212  A    between atoms: _517  and  _520
REMARK  213  A    between atoms: _520  and  _521
REMARK  214  A    between atoms: _526  and  _528
REMARK  215  A    between atoms: _528  and  _529
REMARK  216  A    between atoms: _528  and  _531
REMARK  217  A    between atoms: _531  and  _532
REMARK  218  A    between atoms: _535  and  _537
REMARK  219  A    between atoms: _537  and  _538
REMARK  220  A    between atoms: _537  and  _540
REMARK  221  A    between atoms: _540  and  _541
REMARK  222  A    between atoms: _544  and  _546
REMARK  223  A    between atoms: _546  and  _547
REMARK  224  A    between atoms: _549  and  _551
REMARK  225  A    between atoms: _551  and  _552
REMARK  226  A    between atoms: _551  and  _554
REMARK  227  A    between atoms: _554  and  _555
REMARK  228  A    between atoms: _555  and  _556
REMARK  229  A    between atoms: _556  and  _557
REMARK                            x       y       z     vdW  Elec       q    Type
REMARK                         _______ _______ _______ _____ _____    ______ ____
ROOT
ATOM      1  O   HOH     1      14.757  -6.309 -22.293  0.00  0.00    +0.000 OA
ENDROOT
TORSDOF 0
REMARK  Name = ../refined-set-2016/4qgi/4qgi_pocket.pdb
REMARK  229 active torsions:
REMARK  status: ('A' for Active; 'I' for Inactive)
REMARK    1  A    between atoms: _1  and  _3
REMARK    2  A    between atoms: _3  and  _4
REMARK    3  A    between atoms: _3  and  _6
REMARK    4  A    between atoms: _6  and  _7
REMARK    5  A    between atoms: _7  and  _8
REMARK    6  A    between atoms: _8  and  _9
REMARK    7  A    between atoms: _18  and  _20
REMARK    8  A    between atoms: _20  and  _21
REMARK    9  A    between atoms: _20  and  _23
REMARK   10  A    between atoms: _23  and  _24
REMARK   11  A    between atoms: _27  and  _29
REMARK   12  A    between atoms: _29  and  _30
REMARK   13  A    between atoms: _29  and  _32
REMARK   14  A    between atoms: _32  and  _33
REMARK   15  A    between atoms: _36  and  _38
REMARK   16  A    between atoms: _38  and  _39
REMARK   17  A    between atoms: _38  and  _41
REMARK   18  A    between atoms: _41  and  _42
REMARK   19  A    between atoms: _45  and  _47
REMARK   20  A    between atoms: _47  and  _48
REMARK   21  A    between atoms: _47  and  _50
REMARK   22  A    between atoms: _50  and  _51
REMARK   23  A    between atoms: _54  and  _56
REMARK   24  A    between atoms: _56  and  _57
REMARK   25  A    between atoms: _59  and  _61
REMARK   26  A    between atoms: _61  and  _62
REMARK   27  A    between atoms: _65  and  _67
REMARK   28  A    between atoms: _67  and  _68
REMARK   29  A    between atoms: _67  and  _70
REMARK   30  A    between atoms: _70  and  _71
REMARK   31  A    between atoms: _74  and  _76
REMARK   32  A    between atoms: _76  and  _77
REMARK   33  A    between atoms: _76  and  _79
REMARK   34  A    between atoms: _79  and  _80
REMARK   35  A    between atoms: _83  and  _85
REMARK   36  A    between atoms: _85  and  _86
REMARK   37  A    between atoms: _85  and  _88
REMARK   38  A    between atoms: _88  and  _89
REMARK   39  A    between atoms: _92  and  _94
REMARK   40  A    between atoms: _94  and  _95
REMARK   41  A    between atoms: _94  and  _97
REMARK   42  A    between atoms: _100  and  _102
REMARK   43  A    between atoms: _102  and  _103
REMARK   44  A    between atoms: _102  and  _105
REMARK   45  A    between atoms: _105  and  _106
REMARK   46  A    between atoms: _106  and  _107
REMARK   47  A    between atoms: _107  and  _108
REMARK   48  A    between atoms: _108  and  _109
REMARK   49  A    between atoms: _113  and  _115
REMARK   50  A    between atoms: _115  and  _116
REMARK   51  A    between atoms: _115  and  _118
REMARK   52  A    between atoms: _118  and  _119
REMARK   53  A    between atoms: _119  and  _120
REMARK   54  A    between atoms: _122  and  _124
REMARK   55  A    between atoms: _124  and  _125
REMARK   56  A    between atoms: _124  and  _127
REMARK   57  A    between atoms: _127  and  _128
REMARK   58  A    between atoms: _131  and  _133
REMARK   59  A    between atoms: _133  and  _134
REMARK   60  A    between atoms: _133  and  _136
REMARK   61  A    between atoms: _136  and  _137
REMARK   62  A    between atoms: _140  and  _142
REMARK   63  A    between atoms: _142  and  _143
REMARK   64  A    between atoms: _145  and  _147
REMARK   65  A    between atoms: _147  and  _148
REMARK   66  A    between atoms: _147  and  _150
REMARK   67  A    between atoms: _150  and  _151
REMARK   68  A    between atoms: _154  and  _156
REMARK   69  A    between atoms: _156  and  _157
REMARK   70  A    between atoms: _159  and  _161
REMARK   71  A    between atoms: _161  and  _162
REMARK   72  A    between atoms: _164  and  _166
REMARK   73  A    between atoms: _166  and  _167
REMARK   74  A    between atoms: _166  and  _169
REMARK   75  A    between atoms: _169  and  _170
REMARK   76  A    between atoms: _176  and  _178
REMARK   77  A    between atoms: _178  and  _179
REMARK   78  A    between atoms: _178  and  _181
REMARK   79  A    between atoms: _181  and  _182
REMARK   80  A    between atoms: _185  and  _187
REMARK   81  A    between atoms: _187  and  _188
REMARK   82  A    between atoms: _187  and  _190
REMARK   83  A    between atoms: _193  and  _195
REMARK   84  A    between atoms: _195  and  _196
REMARK   85  A    between atoms: _195  and  _198
REMARK   86  A    between atoms: _198  and  _199
REMARK   87  A    between atoms: _203  and  _204
REMARK   88  A    between atoms: _209  and  _211
REMARK   89  A    between atoms: _211  and  _212
REMARK   90  A    between atoms: _211  and  _214
REMARK   91  A    between atoms: _214  and  _215
REMARK   92  A    between atoms: _219  and  _220
REMARK   93  A    between atoms: _225  and  _227
REMARK   94  A    between atoms: _227  and  _228
REMARK   95  A    between atoms: _227  and  _230
REMARK   96  A    between atoms: _233  and  _235
REMARK   97  A    between atoms: _235  and  _236
REMARK   98  A    between atoms: _235  and  _238
REMARK   99  A    between atoms: _238  and  _239
REMARK  100  A    between atoms: _244  and  _246
REMARK  101  A    between atoms: _246  and  _247
REMARK  102  A    between atoms: _246  and  _249
REMARK  103  A    between atoms: _249  and  _250
REMARK  104  A    between atoms: _253  and  _255
REMARK  105  A    between atoms: _255  and  _256
REMARK  106  A    between atoms: _255  and  _258
REMARK  107  A    between atoms: _258  and  _259
REMARK  108  A    between atoms: _262  and  _264
REMARK  109  A    between atoms: _264  and  _265
REMARK  110  A    between atoms: _267  and  _269
REMARK  111  A    between atoms: _269  and  _270
REMARK  112  A    between atoms: _269  and  _272
REMARK  113  A    between atoms: _272  and  _273
REMARK  114  A    between atoms: _273  and  _274
REMARK  115  A    between atoms: _274  and  _275
REMARK  116  A    between atoms: _284  and  _286
REMARK  117  A    between atoms: _286  and  _287
REMARK  118  A    between atoms: _286  and  _289
REMARK  119  A    between atoms: _289  and  _290
REMARK  120  A    between atoms: _295  and  _297
REMARK  121  A    between atoms: _297  and  _298
REMARK  122  A    between atoms: _297  and  _300
REMARK  123  A    between atoms: _300  and  _301
REMARK  124  A    between atoms: _301  and  _302
REMARK  125  A    between atoms: _302  and  _303
REMARK  126  A    between atoms: _312  and  _314
REMARK  127  A    between atoms: _314  and  _315
REMARK  128  A    between atoms: _314  and  _317
REMARK  129  A    between atoms: _317  and  _318
REMARK  130  A    between atoms: _321  and  _323
REMARK  131  A    between atoms: _323  and  _324
REMARK  132  A    between atoms: _323  and  _326
REMARK  133  A    between atoms: _326  and  _327
REMARK  134  A    between atoms: _330  and  _332
REMARK  135  A    between atoms: _332  and  _333
REMARK  136  A    between atoms: _332  and  _335
REMARK  137  A    between atoms: _335  and  _336
REMARK  138  A    between atoms: _339  and  _341
REMARK  139  A    between atoms: _341  and  _342
REMARK  140  A    between atoms: _341  and  _344
REMARK  141  A    between atoms: _344  and  _345
REMARK  142  A    between atoms: _348  and  _350
REMARK  143  A    between atoms: _350  and  _351
REMARK  144  A    between atoms: _353  and  _355
REMARK  145  A    between atoms: _355  and  _356
REMARK  146  A    between atoms: _359  and  _361
REMARK  147  A    between atoms: _361  and  _362
REMARK  148  A    between atoms: _361  and  _364
REMARK  149  A    between atoms: _364  and  _365
REMARK  150  A    between atoms: _368  and  _370
REMARK  151  A    between atoms: _370  and  _371
REMARK  152  A    between atoms: _370  and  _373
REMARK  153  A    between atoms: _373  and  _374
REMARK  154  A    between atoms: _377  and  _379
REMARK  155  A    between atoms: _379  and  _380
REMARK  156  A    between atoms: _379  and  _382
REMARK  157  A    between atoms: _382  and  _383
REMARK  158  A    between atoms: _386  and  _388
REMARK  159  A    between atoms: _388  and  _389
REMARK  160  A    between atoms: _388  and  _391
REMARK  161  A    between atoms: _394  and  _396
REMARK  162  A    between atoms: _396  and  _397
REMARK  163  A    between atoms: _396  and  _399
REMARK  164  A    between atoms: _399  and  _400
REMARK  165  A    between atoms: _403  and  _405
REMARK  166  A    between atoms: _405  and  _406
REMARK  167  A    between atoms: _405  and  _408
REMARK  168  A    between atoms: _408  and  _409
REMARK  169  A    between atoms: _409  and  _410
REMARK  170  A    between atoms: _410  and  _411
REMARK  171  A    between atoms: _411  and  _412
REMARK  172  A    between atoms: _416  and  _418
REMARK  173  A    between atoms: _418  and  _419
REMARK  174  A    between atoms: _418  and  _421
REMARK  175  A    between atoms: _421  and  _422
REMARK  176  A    between atoms: _425  and  _427
REMARK  177  A    between atoms: _427  and  _428
REMARK  178  A    between atoms: _427  and  _430
REMARK  179  A    between atoms: _430  and  _431
REMARK  180  A    between atoms: _434  and  _436
REMARK  181  A    between atoms: _436  and  _437
REMARK  182  A    between atoms: _439  and  _441
REMARK  183  A    between atoms: _441  and  _442
REMARK  184  A    between atoms: _441  and  _444
REMARK  185  A    between atoms: _444  and  _445
REMARK  186  A    between atoms: _448  and  _450
REMARK  187  A    between atoms: _450  and  _451
REMARK  188  A    between atoms: _453  and  _455
REMARK  189  A    between atoms: _455  and  _456
REMARK  190  A    between atoms: _458  and  _460
REMARK  191  A    between atoms: _460  and  _461
REMARK  192  A    between atoms: _460  and  _463
REMARK  193  A    between atoms: _463  and  _464
REMARK  194  A    between atoms: _467  and  _469
REMARK  195  A    between atoms: _469  and  _470
REMARK  196  A    between atoms: _469  and  _472
REMARK  197  A    between atoms: _475  and  _477
REMARK  198  A    between atoms: _477  and  _478
REMARK  199  A    between atoms: _477  and  _480
REMARK  200  A    between atoms: _480  and  _481
REMARK  201  A    between atoms: _485  and  _486
REMARK  202  A    between atoms: _491  and  _493
REMARK  203  A    between atoms: _493  and  _494
REMARK  204  A    between atoms: _493  and  _496
REMARK  205  A    between atoms: _496  and  _497
REMARK  206  A    between atoms: _501  and  _502
REMARK  207  A    between atoms: _507  and  _509
REMARK  208  A    between atoms: _509  and  _510
REMARK  209  A    between atoms: _509  and  _512
REMARK  210  A    between atoms: _515  and  _517
REMARK  211  A    between atoms: _517  and  _518
REMARK  212  A    between atoms: _517  and  _520
REMARK  213  A    between atoms: _520  and  _521
REMARK  214  A    between atoms: _526  and  _528
REMARK  215  A    between atoms: _528  and  _529
REMARK  216  A    between atoms: _528  and  _531
REMARK  217  A    between atoms: _531  and  _532
REMARK  218  A    between atoms: _535  and  _537
REMARK  219  A    between atoms: _537  and  _538
REMARK  220  A    between atoms: _537  and  _540
REMARK  221  A    between atoms: _540  and  _541
REMARK  222  A    between atoms: _544  and  _546
REMARK  223  A    between atoms: _546  and  _547
REMARK  224  A    between atoms: _549  and  _551
REMARK  225  A    between atoms: _551  and  _552
REMARK  226  A    between atoms: _551  and  _554
REMARK  227  A    between atoms: _554  and  _555
REMARK  228  A    between atoms: _555  and  _556
REMARK  229  A    between atoms: _556  and  _557
REMARK                            x       y       z     vdW  Elec       q    Type
REMARK                         _______ _______ _______ _____ _____    ______ ____
ROOT
ATOM      1  O   HOH     1      19.720  -2.903 -19.628  0.00  0.00    +0.000 OA
ENDROOT
TORSDOF 0
REMARK  Name = ../refined-set-2016/4qgi/4qgi_pocket.pdb
REMARK  229 active torsions:
REMARK  status: ('A' for Active; 'I' for Inactive)
REMARK    1  A    between atoms: _1  and  _3
REMARK    2  A    between atoms: _3  and  _4
REMARK    3  A    between atoms: _3  and  _6
REMARK    4  A    between atoms: _6  and  _7
REMARK    5  A    between atoms: _7  and  _8
REMARK    6  A    between atoms: _8  and  _9
REMARK    7  A    between atoms: _18  and  _20
REMARK    8  A    between atoms: _20  and  _21
REMARK    9  A    between atoms: _20  and  _23
REMARK   10  A    between atoms: _23  and  _24
REMARK   11  A    between atoms: _27  and  _29
REMARK   12  A    between atoms: _29  and  _30
REMARK   13  A    between atoms: _29  and  _32
REMARK   14  A    between atoms: _32  and  _33
REMARK   15  A    between atoms: _36  and  _38
REMARK   16  A    between atoms: _38  and  _39
REMARK   17  A    between atoms: _38  and  _41
REMARK   18  A    between atoms: _41  and  _42
REMARK   19  A    between atoms: _45  and  _47
REMARK   20  A    between atoms: _47  and  _48
REMARK   21  A    between atoms: _47  and  _50
REMARK   22  A    between atoms: _50  and  _51
REMARK   23  A    between atoms: _54  and  _56
REMARK   24  A    between atoms: _56  and  _57
REMARK   25  A    between atoms: _59  and  _61
REMARK   26  A    between atoms: _61  and  _62
REMARK   27  A    between atoms: _65  and  _67
REMARK   28  A    between atoms: _67  and  _68
REMARK   29  A    between atoms: _67  and  _70
REMARK   30  A    between atoms: _70  and  _71
REMARK   31  A    between atoms: _74  and  _76
REMARK   32  A    between atoms: _76  and  _77
REMARK   33  A    between atoms: _76  and  _79
REMARK   34  A    between atoms: _79  and  _80
REMARK   35  A    between atoms: _83  and  _85
REMARK   36  A    between atoms: _85  and  _86
REMARK   37  A    between atoms: _85  and  _88
REMARK   38  A    between atoms: _88  and  _89
REMARK   39  A    between atoms: _92  and  _94
REMARK   40  A    between atoms: _94  and  _95
REMARK   41  A    between atoms: _94  and  _97
REMARK   42  A    between atoms: _100  and  _102
REMARK   43  A    between atoms: _102  and  _103
REMARK   44  A    between atoms: _102  and  _105
REMARK   45  A    between atoms: _105  and  _106
REMARK   46  A    between atoms: _106  and  _107
REMARK   47  A    between atoms: _107  and  _108
REMARK   48  A    between atoms: _108  and  _109
REMARK   49  A    between atoms: _113  and  _115
REMARK   50  A    between atoms: _115  and  _116
REMARK   51  A    between atoms: _115  and  _118
REMARK   52  A    between atoms: _118  and  _119
REMARK   53  A    between atoms: _119  and  _120
REMARK   54  A    between atoms: _122  and  _124
REMARK   55  A    between atoms: _124  and  _125
REMARK   56  A    between atoms: _124  and  _127
REMARK   57  A    between atoms: _127  and  _128
REMARK   58  A    between atoms: _131  and  _133
REMARK   59  A    between atoms: _133  and  _134
REMARK   60  A    between atoms: _133  and  _136
REMARK   61  A    between atoms: _136  and  _137
REMARK   62  A    between atoms: _140  and  _142
REMARK   63  A    between atoms: _142  and  _143
REMARK   64  A    between atoms: _145  and  _147
REMARK   65  A    between atoms: _147  and  _148
REMARK   66  A    between atoms: _147  and  _150
REMARK   67  A    between atoms: _150  and  _151
REMARK   68  A    between atoms: _154  and  _156
REMARK   69  A    between atoms: _156  and  _157
REMARK   70  A    between atoms: _159  and  _161
REMARK   71  A    between atoms: _161  and  _162
REMARK   72  A    between atoms: _164  and  _166
REMARK   73  A    between atoms: _166  and  _167
REMARK   74  A    between atoms: _166  and  _169
REMARK   75  A    between atoms: _169  and  _170
REMARK   76  A    between atoms: _176  and  _178
REMARK   77  A    between atoms: _178  and  _179
REMARK   78  A    between atoms: _178  and  _181
REMARK   79  A    between atoms: _181  and  _182
REMARK   80  A    between atoms: _185  and  _187
REMARK   81  A    between atoms: _187  and  _188
REMARK   82  A    between atoms: _187  and  _190
REMARK   83  A    between atoms: _193  and  _195
REMARK   84  A    between atoms: _195  and  _196
REMARK   85  A    between atoms: _195  and  _198
REMARK   86  A    between atoms: _198  and  _199
REMARK   87  A    between atoms: _203  and  _204
REMARK   88  A    between atoms: _209  and  _211
REMARK   89  A    between atoms: _211  and  _212
REMARK   90  A    between atoms: _211  and  _214
REMARK   91  A    between atoms: _214  and  _215
REMARK   92  A    between atoms: _219  and  _220
REMARK   93  A    between atoms: _225  and  _227
REMARK   94  A    between atoms: _227  and  _228
REMARK   95  A    between atoms: _227  and  _230
REMARK   96  A    between atoms: _233  and  _235
REMARK   97  A    between atoms: _235  and  _236
REMARK   98  A    between atoms: _235  and  _238
REMARK   99  A    between atoms: _238  and  _239
REMARK  100  A    between atoms: _244  and  _246
REMARK  101  A    between atoms: _246  and  _247
REMARK  102  A    between atoms: _246  and  _249
REMARK  103  A    between atoms: _249  and  _250
REMARK  104  A    between atoms: _253  and  _255
REMARK  105  A    between atoms: _255  and  _256
REMARK  106  A    between atoms: _255  and  _258
REMARK  107  A    between atoms: _258  and  _259
REMARK  108  A    between atoms: _262  and  _264
REMARK  109  A    between atoms: _264  and  _265
REMARK  110  A    between atoms: _267  and  _269
REMARK  111  A    between atoms: _269  and  _270
REMARK  112  A    between atoms: _269  and  _272
REMARK  113  A    between atoms: _272  and  _273
REMARK  114  A    between atoms: _273  and  _274
REMARK  115  A    between atoms: _274  and  _275
REMARK  116  A    between atoms: _284  and  _286
REMARK  117  A    between atoms: _286  and  _287
REMARK  118  A    between atoms: _286  and  _289
REMARK  119  A    between atoms: _289  and  _290
REMARK  120  A    between atoms: _295  and  _297
REMARK  121  A    between atoms: _297  and  _298
REMARK  122  A    between atoms: _297  and  _300
REMARK  123  A    between atoms: _300  and  _301
REMARK  124  A    between atoms: _301  and  _302
REMARK  125  A    between atoms: _302  and  _303
REMARK  126  A    between atoms: _312  and  _314
REMARK  127  A    between atoms: _314  and  _315
REMARK  128  A    between atoms: _314  and  _317
REMARK  129  A    between atoms: _317  and  _318
REMARK  130  A    between atoms: _321  and  _323
REMARK  131  A    between atoms: _323  and  _324
REMARK  132  A    between atoms: _323  and  _326
REMARK  133  A    between atoms: _326  and  _327
REMARK  134  A    between atoms: _330  and  _332
REMARK  135  A    between atoms: _332  and  _333
REMARK  136  A    between atoms: _332  and  _335
REMARK  137  A    between atoms: _335  and  _336
REMARK  138  A    between atoms: _339  and  _341
REMARK  139  A    between atoms: _341  and  _342
REMARK  140  A    between atoms: _341  and  _344
REMARK  141  A    between atoms: _344  and  _345
REMARK  142  A    between atoms: _348  and  _350
REMARK  143  A    between atoms: _350  and  _351
REMARK  144  A    between atoms: _353  and  _355
REMARK  145  A    between atoms: _355  and  _356
REMARK  146  A    between atoms: _359  and  _361
REMARK  147  A    between atoms: _361  and  _362
REMARK  148  A    between atoms: _361  and  _364
REMARK  149  A    between atoms: _364  and  _365
REMARK  150  A    between atoms: _368  and  _370
REMARK  151  A    between atoms: _370  and  _371
REMARK  152  A    between atoms: _370  and  _373
REMARK  153  A    between atoms: _373  and  _374
REMARK  154  A    between atoms: _377  and  _379
REMARK  155  A    between atoms: _379  and  _380
REMARK  156  A    between atoms: _379  and  _382
REMARK  157  A    between atoms: _382  and  _383
REMARK  158  A    between atoms: _386  and  _388
REMARK  159  A    between atoms: _388  and  _389
REMARK  160  A    between atoms: _388  and  _391
REMARK  161  A    between atoms: _394  and  _396
REMARK  162  A    between atoms: _396  and  _397
REMARK  163  A    between atoms: _396  and  _399
REMARK  164  A    between atoms: _399  and  _400
REMARK  165  A    between atoms: _403  and  _405
REMARK  166  A    between atoms: _405  and  _406
REMARK  167  A    between atoms: _405  and  _408
REMARK  168  A    between atoms: _408  and  _409
REMARK  169  A    between atoms: _409  and  _410
REMARK  170  A    between atoms: _410  and  _411
REMARK  171  A    between atoms: _411  and  _412
REMARK  172  A    between atoms: _416  and  _418
REMARK  173  A    between atoms: _418  and  _419
REMARK  174  A    between atoms: _418  and  _421
REMARK  175  A    between atoms: _421  and  _422
REMARK  176  A    between atoms: _425  and  _427
REMARK  177  A    between atoms: _427  and  _428
REMARK  178  A    between atoms: _427  and  _430
REMARK  179  A    between atoms: _430  and  _431
REMARK  180  A    between atoms: _434  and  _436
REMARK  181  A    between atoms: _436  and  _437
REMARK  182  A    between atoms: _439  and  _441
REMARK  183  A    between atoms: _441  and  _442
REMARK  184  A    between atoms: _441  and  _444
REMARK  185  A    between atoms: _444  and  _445
REMARK  186  A    between atoms: _448  and  _450
REMARK  187  A    between atoms: _450  and  _451
REMARK  188  A    between atoms: _453  and  _455
REMARK  189  A    between atoms: _455  and  _456
REMARK  190  A    between atoms: _458  and  _460
REMARK  191  A    between atoms: _460  and  _461
REMARK  192  A    between atoms: _460  and  _463
REMARK  193  A    between atoms: _463  and  _464
REMARK  194  A    between atoms: _467  and  _469
REMARK  195  A    between atoms: _469  and  _470
REMARK  196  A    between atoms: _469  and  _472
REMARK  197  A    between atoms: _475  and  _477
REMARK  198  A    between atoms: _477  and  _478
REMARK  199  A    between atoms: _477  and  _480
REMARK  200  A    between atoms: _480  and  _481
REMARK  201  A    between atoms: _485  and  _486
REMARK  202  A    between atoms: _491  and  _493
REMARK  203  A    between atoms: _493  and  _494
REMARK  204  A    between atoms: _493  and  _496
REMARK  205  A    between atoms: _496  and  _497
REMARK  206  A    between atoms: _501  and  _502
REMARK  207  A    between atoms: _507  and  _509
REMARK  208  A    between atoms: _509  and  _510
REMARK  209  A    between atoms: _509  and  _512
REMARK  210  A    between atoms: _515  and  _517
REMARK  211  A    between atoms: _517  and  _518
REMARK  212  A    between atoms: _517  and  _520
REMARK  213  A    between atoms: _520  and  _521
REMARK  214  A    between atoms: _526  and  _528
REMARK  215  A    between atoms: _528  and  _529
REMARK  216  A    between atoms: _528  and  _531
REMARK  217  A    between atoms: _531  and  _532
REMARK  218  A    between atoms: _535  and  _537
REMARK  219  A    between atoms: _537  and  _538
REMARK  220  A    between atoms: _537  and  _540
REMARK  221  A    between atoms: _540  and  _541
REMARK  222  A    between atoms: _544  and  _546
REMARK  223  A    between atoms: _546  and  _547
REMARK  224  A    between atoms: _549  and  _551
REMARK  225  A    between atoms: _551  and  _552
REMARK  226  A    between atoms: _551  and  _554
REMARK  227  A    between atoms: _554  and  _555
REMARK  228  A    between atoms: _555  and  _556
REMARK  229  A    between atoms: _556  and  _557
REMARK                            x       y       z     vdW  Elec       q    Type
REMARK                         _______ _______ _______ _____ _____    ______ ____
ROOT
ATOM      1  O   HOH     1       8.815  -6.448  -4.794  0.00  0.00    +0.000 OA
ENDROOT
TORSDOF 0
REMARK  Name = ../refined-set-2016/4qgi/4qgi_pocket.pdb
REMARK  229 active torsions:
REMARK  status: ('A' for Active; 'I' for Inactive)
REMARK    1  A    between atoms: _1  and  _3
REMARK    2  A    between atoms: _3  and  _4
REMARK    3  A    between atoms: _3  and  _6
REMARK    4  A    between atoms: _6  and  _7
REMARK    5  A    between atoms: _7  and  _8
REMARK    6  A    between atoms: _8  and  _9
REMARK    7  A    between atoms: _18  and  _20
REMARK    8  A    between atoms: _20  and  _21
REMARK    9  A    between atoms: _20  and  _23
REMARK   10  A    between atoms: _23  and  _24
REMARK   11  A    between atoms: _27  and  _29
REMARK   12  A    between atoms: _29  and  _30
REMARK   13  A    between atoms: _29  and  _32
REMARK   14  A    between atoms: _32  and  _33
REMARK   15  A    between atoms: _36  and  _38
REMARK   16  A    between atoms: _38  and  _39
REMARK   17  A    between atoms: _38  and  _41
REMARK   18  A    between atoms: _41  and  _42
REMARK   19  A    between atoms: _45  and  _47
REMARK   20  A    between atoms: _47  and  _48
REMARK   21  A    between atoms: _47  and  _50
REMARK   22  A    between atoms: _50  and  _51
REMARK   23  A    between atoms: _54  and  _56
REMARK   24  A    between atoms: _56  and  _57
REMARK   25  A    between atoms: _59  and  _61
REMARK   26  A    between atoms: _61  and  _62
REMARK   27  A    between atoms: _65  and  _67
REMARK   28  A    between atoms: _67  and  _68
REMARK   29  A    between atoms: _67  and  _70
REMARK   30  A    between atoms: _70  and  _71
REMARK   31  A    between atoms: _74  and  _76
REMARK   32  A    between atoms: _76  and  _77
REMARK   33  A    between atoms: _76  and  _79
REMARK   34  A    between atoms: _79  and  _80
REMARK   35  A    between atoms: _83  and  _85
REMARK   36  A    between atoms: _85  and  _86
REMARK   37  A    between atoms: _85  and  _88
REMARK   38  A    between atoms: _88  and  _89
REMARK   39  A    between atoms: _92  and  _94
REMARK   40  A    between atoms: _94  and  _95
REMARK   41  A    between atoms: _94  and  _97
REMARK   42  A    between atoms: _100  and  _102
REMARK   43  A    between atoms: _102  and  _103
REMARK   44  A    between atoms: _102  and  _105
REMARK   45  A    between atoms: _105  and  _106
REMARK   46  A    between atoms: _106  and  _107
REMARK   47  A    between atoms: _107  and  _108
REMARK   48  A    between atoms: _108  and  _109
REMARK   49  A    between atoms: _113  and  _115
REMARK   50  A    between atoms: _115  and  _116
REMARK   51  A    between atoms: _115  and  _118
REMARK   52  A    between atoms: _118  and  _119
REMARK   53  A    between atoms: _119  and  _120
REMARK   54  A    between atoms: _122  and  _124
REMARK   55  A    between atoms: _124  and  _125
REMARK   56  A    between atoms: _124  and  _127
REMARK   57  A    between atoms: _127  and  _128
REMARK   58  A    between atoms: _131  and  _133
REMARK   59  A    between atoms: _133  and  _134
REMARK   60  A    between atoms: _133  and  _136
REMARK   61  A    between atoms: _136  and  _137
REMARK   62  A    between atoms: _140  and  _142
REMARK   63  A    between atoms: _142  and  _143
REMARK   64  A    between atoms: _145  and  _147
REMARK   65  A    between atoms: _147  and  _148
REMARK   66  A    between atoms: _147  and  _150
REMARK   67  A    between atoms: _150  and  _151
REMARK   68  A    between atoms: _154  and  _156
REMARK   69  A    between atoms: _156  and  _157
REMARK   70  A    between atoms: _159  and  _161
REMARK   71  A    between atoms: _161  and  _162
REMARK   72  A    between atoms: _164  and  _166
REMARK   73  A    between atoms: _166  and  _167
REMARK   74  A    between atoms: _166  and  _169
REMARK   75  A    between atoms: _169  and  _170
REMARK   76  A    between atoms: _176  and  _178
REMARK   77  A    between atoms: _178  and  _179
REMARK   78  A    between atoms: _178  and  _181
REMARK   79  A    between atoms: _181  and  _182
REMARK   80  A    between atoms: _185  and  _187
REMARK   81  A    between atoms: _187  and  _188
REMARK   82  A    between atoms: _187  and  _190
REMARK   83  A    between atoms: _193  and  _195
REMARK   84  A    between atoms: _195  and  _196
REMARK   85  A    between atoms: _195  and  _198
REMARK   86  A    between atoms: _198  and  _199
REMARK   87  A    between atoms: _203  and  _204
REMARK   88  A    between atoms: _209  and  _211
REMARK   89  A    between atoms: _211  and  _212
REMARK   90  A    between atoms: _211  and  _214
REMARK   91  A    between atoms: _214  and  _215
REMARK   92  A    between atoms: _219  and  _220
REMARK   93  A    between atoms: _225  and  _227
REMARK   94  A    between atoms: _227  and  _228
REMARK   95  A    between atoms: _227  and  _230
REMARK   96  A    between atoms: _233  and  _235
REMARK   97  A    between atoms: _235  and  _236
REMARK   98  A    between atoms: _235  and  _238
REMARK   99  A    between atoms: _238  and  _239
REMARK  100  A    between atoms: _244  and  _246
REMARK  101  A    between atoms: _246  and  _247
REMARK  102  A    between atoms: _246  and  _249
REMARK  103  A    between atoms: _249  and  _250
REMARK  104  A    between atoms: _253  and  _255
REMARK  105  A    between atoms: _255  and  _256
REMARK  106  A    between atoms: _255  and  _258
REMARK  107  A    between atoms: _258  and  _259
REMARK  108  A    between atoms: _262  and  _264
REMARK  109  A    between atoms: _264  and  _265
REMARK  110  A    between atoms: _267  and  _269
REMARK  111  A    between atoms: _269  and  _270
REMARK  112  A    between atoms: _269  and  _272
REMARK  113  A    between atoms: _272  and  _273
REMARK  114  A    between atoms: _273  and  _274
REMARK  115  A    between atoms: _274  and  _275
REMARK  116  A    between atoms: _284  and  _286
REMARK  117  A    between atoms: _286  and  _287
REMARK  118  A    between atoms: _286  and  _289
REMARK  119  A    between atoms: _289  and  _290
REMARK  120  A    between atoms: _295  and  _297
REMARK  121  A    between atoms: _297  and  _298
REMARK  122  A    between atoms: _297  and  _300
REMARK  123  A    between atoms: _300  and  _301
REMARK  124  A    between atoms: _301  and  _302
REMARK  125  A    between atoms: _302  and  _303
REMARK  126  A    between atoms: _312  and  _314
REMARK  127  A    between atoms: _314  and  _315
REMARK  128  A    between atoms: _314  and  _317
REMARK  129  A    between atoms: _317  and  _318
REMARK  130  A    between atoms: _321  and  _323
REMARK  131  A    between atoms: _323  and  _324
REMARK  132  A    between atoms: _323  and  _326
REMARK  133  A    between atoms: _326  and  _327
REMARK  134  A    between atoms: _330  and  _332
REMARK  135  A    between atoms: _332  and  _333
REMARK  136  A    between atoms: _332  and  _335
REMARK  137  A    between atoms: _335  and  _336
REMARK  138  A    between atoms: _339  and  _341
REMARK  139  A    between atoms: _341  and  _342
REMARK  140  A    between atoms: _341  and  _344
REMARK  141  A    between atoms: _344  and  _345
REMARK  142  A    between atoms: _348  and  _350
REMARK  143  A    between atoms: _350  and  _351
REMARK  144  A    between atoms: _353  and  _355
REMARK  145  A    between atoms: _355  and  _356
REMARK  146  A    between atoms: _359  and  _361
REMARK  147  A    between atoms: _361  and  _362
REMARK  148  A    between atoms: _361  and  _364
REMARK  149  A    between atoms: _364  and  _365
REMARK  150  A    between atoms: _368  and  _370
REMARK  151  A    between atoms: _370  and  _371
REMARK  152  A    between atoms: _370  and  _373
REMARK  153  A    between atoms: _373  and  _374
REMARK  154  A    between atoms: _377  and  _379
REMARK  155  A    between atoms: _379  and  _380
REMARK  156  A    between atoms: _379  and  _382
REMARK  157  A    between atoms: _382  and  _383
REMARK  158  A    between atoms: _386  and  _388
REMARK  159  A    between atoms: _388  and  _389
REMARK  160  A    between atoms: _388  and  _391
REMARK  161  A    between atoms: _394  and  _396
REMARK  162  A    between atoms: _396  and  _397
REMARK  163  A    between atoms: _396  and  _399
REMARK  164  A    between atoms: _399  and  _400
REMARK  165  A    between atoms: _403  and  _405
REMARK  166  A    between atoms: _405  and  _406
REMARK  167  A    between atoms: _405  and  _408
REMARK  168  A    between atoms: _408  and  _409
REMARK  169  A    between atoms: _409  and  _410
REMARK  170  A    between atoms: _410  and  _411
REMARK  171  A    between atoms: _411  and  _412
REMARK  172  A    between atoms: _416  and  _418
REMARK  173  A    between atoms: _418  and  _419
REMARK  174  A    between atoms: _418  and  _421
REMARK  175  A    between atoms: _421  and  _422
REMARK  176  A    between atoms: _425  and  _427
REMARK  177  A    between atoms: _427  and  _428
REMARK  178  A    between atoms: _427  and  _430
REMARK  179  A    between atoms: _430  and  _431
REMARK  180  A    between atoms: _434  and  _436
REMARK  181  A    between atoms: _436  and  _437
REMARK  182  A    between atoms: _439  and  _441
REMARK  183  A    between atoms: _441  and  _442
REMARK  184  A    between atoms: _441  and  _444
REMARK  185  A    between atoms: _444  and  _445
REMARK  186  A    between atoms: _448  and  _450
REMARK  187  A    between atoms: _450  and  _451
REMARK  188  A    between atoms: _453  and  _455
REMARK  189  A    between atoms: _455  and  _456
REMARK  190  A    between atoms: _458  and  _460
REMARK  191  A    between atoms: _460  and  _461
REMARK  192  A    between atoms: _460  and  _463
REMARK  193  A    between atoms: _463  and  _464
REMARK  194  A    between atoms: _467  and  _469
REMARK  195  A    between atoms: _469  and  _470
REMARK  196  A    between atoms: _469  and  _472
REMARK  197  A    between atoms: _475  and  _477
REMARK  198  A    between atoms: _477  and  _478
REMARK  199  A    between atoms: _477  and  _480
REMARK  200  A    between atoms: _480  and  _481
REMARK  201  A    between atoms: _485  and  _486
REMARK  202  A    between atoms: _491  and  _493
REMARK  203  A    between atoms: _493  and  _494
REMARK  204  A    between atoms: _493  and  _496
REMARK  205  A    between atoms: _496  and  _497
REMARK  206  A    between atoms: _501  and  _502
REMARK  207  A    between atoms: _507  and  _509
REMARK  208  A    between atoms: _509  and  _510
REMARK  209  A    between atoms: _509  and  _512
REMARK  210  A    between atoms: _515  and  _517
REMARK  211  A    between atoms: _517  and  _518
REMARK  212  A    between atoms: _517  and  _520
REMARK  213  A    between atoms: _520  and  _521
REMARK  214  A    between atoms: _526  and  _528
REMARK  215  A    between atoms: _528  and  _529
REMARK  216  A    between atoms: _528  and  _531
REMARK  217  A    between atoms: _531  and  _532
REMARK  218  A    between atoms: _535  and  _537
REMARK  219  A    between atoms: _537  and  _538
REMARK  220  A    between atoms: _537  and  _540
REMARK  221  A    between atoms: _540  and  _541
REMARK  222  A    between atoms: _544  and  _546
REMARK  223  A    between atoms: _546  and  _547
REMARK  224  A    between atoms: _549  and  _551
REMARK  225  A    between atoms: _551  and  _552
REMARK  226  A    between atoms: _551  and  _554
REMARK  227  A    between atoms: _554  and  _555
REMARK  228  A    between atoms: _555  and  _556
REMARK  229  A    between atoms: _556  and  _557
REMARK                            x       y       z     vdW  Elec       q    Type
REMARK                         _______ _______ _______ _____ _____    ______ ____
ROOT
ATOM      1  O   HOH     1      19.015 -11.887 -15.707  0.00  0.00    +0.000 OA
ENDROOT
TORSDOF 0
REMARK  Name = ../refined-set-2016/4qgi/4qgi_pocket.pdb
REMARK  229 active torsions:
REMARK  status: ('A' for Active; 'I' for Inactive)
REMARK    1  A    between atoms: _1  and  _3
REMARK    2  A    between atoms: _3  and  _4
REMARK    3  A    between atoms: _3  and  _6
REMARK    4  A    between atoms: _6  and  _7
REMARK    5  A    between atoms: _7  and  _8
REMARK    6  A    between atoms: _8  and  _9
REMARK    7  A    between atoms: _18  and  _20
REMARK    8  A    between atoms: _20  and  _21
REMARK    9  A    between atoms: _20  and  _23
REMARK   10  A    between atoms: _23  and  _24
REMARK   11  A    between atoms: _27  and  _29
REMARK   12  A    between atoms: _29  and  _30
REMARK   13  A    between atoms: _29  and  _32
REMARK   14  A    between atoms: _32  and  _33
REMARK   15  A    between atoms: _36  and  _38
REMARK   16  A    between atoms: _38  and  _39
REMARK   17  A    between atoms: _38  and  _41
REMARK   18  A    between atoms: _41  and  _42
REMARK   19  A    between atoms: _45  and  _47
REMARK   20  A    between atoms: _47  and  _48
REMARK   21  A    between atoms: _47  and  _50
REMARK   22  A    between atoms: _50  and  _51
REMARK   23  A    between atoms: _54  and  _56
REMARK   24  A    between atoms: _56  and  _57
REMARK   25  A    between atoms: _59  and  _61
REMARK   26  A    between atoms: _61  and  _62
REMARK   27  A    between atoms: _65  and  _67
REMARK   28  A    between atoms: _67  and  _68
REMARK   29  A    between atoms: _67  and  _70
REMARK   30  A    between atoms: _70  and  _71
REMARK   31  A    between atoms: _74  and  _76
REMARK   32  A    between atoms: _76  and  _77
REMARK   33  A    between atoms: _76  and  _79
REMARK   34  A    between atoms: _79  and  _80
REMARK   35  A    between atoms: _83  and  _85
REMARK   36  A    between atoms: _85  and  _86
REMARK   37  A    between atoms: _85  and  _88
REMARK   38  A    between atoms: _88  and  _89
REMARK   39  A    between atoms: _92  and  _94
REMARK   40  A    between atoms: _94  and  _95
REMARK   41  A    between atoms: _94  and  _97
REMARK   42  A    between atoms: _100  and  _102
REMARK   43  A    between atoms: _102  and  _103
REMARK   44  A    between atoms: _102  and  _105
REMARK   45  A    between atoms: _105  and  _106
REMARK   46  A    between atoms: _106  and  _107
REMARK   47  A    between atoms: _107  and  _108
REMARK   48  A    between atoms: _108  and  _109
REMARK   49  A    between atoms: _113  and  _115
REMARK   50  A    between atoms: _115  and  _116
REMARK   51  A    between atoms: _115  and  _118
REMARK   52  A    between atoms: _118  and  _119
REMARK   53  A    between atoms: _119  and  _120
REMARK   54  A    between atoms: _122  and  _124
REMARK   55  A    between atoms: _124  and  _125
REMARK   56  A    between atoms: _124  and  _127
REMARK   57  A    between atoms: _127  and  _128
REMARK   58  A    between atoms: _131  and  _133
REMARK   59  A    between atoms: _133  and  _134
REMARK   60  A    between atoms: _133  and  _136
REMARK   61  A    between atoms: _136  and  _137
REMARK   62  A    between atoms: _140  and  _142
REMARK   63  A    between atoms: _142  and  _143
REMARK   64  A    between atoms: _145  and  _147
REMARK   65  A    between atoms: _147  and  _148
REMARK   66  A    between atoms: _147  and  _150
REMARK   67  A    between atoms: _150  and  _151
REMARK   68  A    between atoms: _154  and  _156
REMARK   69  A    between atoms: _156  and  _157
REMARK   70  A    between atoms: _159  and  _161
REMARK   71  A    between atoms: _161  and  _162
REMARK   72  A    between atoms: _164  and  _166
REMARK   73  A    between atoms: _166  and  _167
REMARK   74  A    between atoms: _166  and  _169
REMARK   75  A    between atoms: _169  and  _170
REMARK   76  A    between atoms: _176  and  _178
REMARK   77  A    between atoms: _178  and  _179
REMARK   78  A    between atoms: _178  and  _181
REMARK   79  A    between atoms: _181  and  _182
REMARK   80  A    between atoms: _185  and  _187
REMARK   81  A    between atoms: _187  and  _188
REMARK   82  A    between atoms: _187  and  _190
REMARK   83  A    between atoms: _193  and  _195
REMARK   84  A    between atoms: _195  and  _196
REMARK   85  A    between atoms: _195  and  _198
REMARK   86  A    between atoms: _198  and  _199
REMARK   87  A    between atoms: _203  and  _204
REMARK   88  A    between atoms: _209  and  _211
REMARK   89  A    between atoms: _211  and  _212
REMARK   90  A    between atoms: _211  and  _214
REMARK   91  A    between atoms: _214  and  _215
REMARK   92  A    between atoms: _219  and  _220
REMARK   93  A    between atoms: _225  and  _227
REMARK   94  A    between atoms: _227  and  _228
REMARK   95  A    between atoms: _227  and  _230
REMARK   96  A    between atoms: _233  and  _235
REMARK   97  A    between atoms: _235  and  _236
REMARK   98  A    between atoms: _235  and  _238
REMARK   99  A    between atoms: _238  and  _239
REMARK  100  A    between atoms: _244  and  _246
REMARK  101  A    between atoms: _246  and  _247
REMARK  102  A    between atoms: _246  and  _249
REMARK  103  A    between atoms: _249  and  _250
REMARK  104  A    between atoms: _253  and  _255
REMARK  105  A    between atoms: _255  and  _256
REMARK  106  A    between atoms: _255  and  _258
REMARK  107  A    between atoms: _258  and  _259
REMARK  108  A    between atoms: _262  and  _264
REMARK  109  A    between atoms: _264  and  _265
REMARK  110  A    between atoms: _267  and  _269
REMARK  111  A    between atoms: _269  and  _270
REMARK  112  A    between atoms: _269  and  _272
REMARK  113  A    between atoms: _272  and  _273
REMARK  114  A    between atoms: _273  and  _274
REMARK  115  A    between atoms: _274  and  _275
REMARK  116  A    between atoms: _284  and  _286
REMARK  117  A    between atoms: _286  and  _287
REMARK  118  A    between atoms: _286  and  _289
REMARK  119  A    between atoms: _289  and  _290
REMARK  120  A    between atoms: _295  and  _297
REMARK  121  A    between atoms: _297  and  _298
REMARK  122  A    between atoms: _297  and  _300
REMARK  123  A    between atoms: _300  and  _301
REMARK  124  A    between atoms: _301  and  _302
REMARK  125  A    between atoms: _302  and  _303
REMARK  126  A    between atoms: _312  and  _314
REMARK  127  A    between atoms: _314  and  _315
REMARK  128  A    between atoms: _314  and  _317
REMARK  129  A    between atoms: _317  and  _318
REMARK  130  A    between atoms: _321  and  _323
REMARK  131  A    between atoms: _323  and  _324
REMARK  132  A    between atoms: _323  and  _326
REMARK  133  A    between atoms: _326  and  _327
REMARK  134  A    between atoms: _330  and  _332
REMARK  135  A    between atoms: _332  and  _333
REMARK  136  A    between atoms: _332  and  _335
REMARK  137  A    between atoms: _335  and  _336
REMARK  138  A    between atoms: _339  and  _341
REMARK  139  A    between atoms: _341  and  _342
REMARK  140  A    between atoms: _341  and  _344
REMARK  141  A    between atoms: _344  and  _345
REMARK  142  A    between atoms: _348  and  _350
REMARK  143  A    between atoms: _350  and  _351
REMARK  144  A    between atoms: _353  and  _355
REMARK  145  A    between atoms: _355  and  _356
REMARK  146  A    between atoms: _359  and  _361
REMARK  147  A    between atoms: _361  and  _362
REMARK  148  A    between atoms: _361  and  _364
REMARK  149  A    between atoms: _364  and  _365
REMARK  150  A    between atoms: _368  and  _370
REMARK  151  A    between atoms: _370  and  _371
REMARK  152  A    between atoms: _370  and  _373
REMARK  153  A    between atoms: _373  and  _374
REMARK  154  A    between atoms: _377  and  _379
REMARK  155  A    between atoms: _379  and  _380
REMARK  156  A    between atoms: _379  and  _382
REMARK  157  A    between atoms: _382  and  _383
REMARK  158  A    between atoms: _386  and  _388
REMARK  159  A    between atoms: _388  and  _389
REMARK  160  A    between atoms: _388  and  _391
REMARK  161  A    between atoms: _394  and  _396
REMARK  162  A    between atoms: _396  and  _397
REMARK  163  A    between atoms: _396  and  _399
REMARK  164  A    between atoms: _399  and  _400
REMARK  165  A    between atoms: _403  and  _405
REMARK  166  A    between atoms: _405  and  _406
REMARK  167  A    between atoms: _405  and  _408
REMARK  168  A    between atoms: _408  and  _409
REMARK  169  A    between atoms: _409  and  _410
REMARK  170  A    between atoms: _410  and  _411
REMARK  171  A    between atoms: _411  and  _412
REMARK  172  A    between atoms: _416  and  _418
REMARK  173  A    between atoms: _418  and  _419
REMARK  174  A    between atoms: _418  and  _421
REMARK  175  A    between atoms: _421  and  _422
REMARK  176  A    between atoms: _425  and  _427
REMARK  177  A    between atoms: _427  and  _428
REMARK  178  A    between atoms: _427  and  _430
REMARK  179  A    between atoms: _430  and  _431
REMARK  180  A    between atoms: _434  and  _436
REMARK  181  A    between atoms: _436  and  _437
REMARK  182  A    between atoms: _439  and  _441
REMARK  183  A    between atoms: _441  and  _442
REMARK  184  A    between atoms: _441  and  _444
REMARK  185  A    between atoms: _444  and  _445
REMARK  186  A    between atoms: _448  and  _450
REMARK  187  A    between atoms: _450  and  _451
REMARK  188  A    between atoms: _453  and  _455
REMARK  189  A    between atoms: _455  and  _456
REMARK  190  A    between atoms: _458  and  _460
REMARK  191  A    between atoms: _460  and  _461
REMARK  192  A    between atoms: _460  and  _463
REMARK  193  A    between atoms: _463  and  _464
REMARK  194  A    between atoms: _467  and  _469
REMARK  195  A    between atoms: _469  and  _470
REMARK  196  A    between atoms: _469  and  _472
REMARK  197  A    between atoms: _475  and  _477
REMARK  198  A    between atoms: _477  and  _478
REMARK  199  A    between atoms: _477  and  _480
REMARK  200  A    between atoms: _480  and  _481
REMARK  201  A    between atoms: _485  and  _486
REMARK  202  A    between atoms: _491  and  _493
REMARK  203  A    between atoms: _493  and  _494
REMARK  204  A    between atoms: _493  and  _496
REMARK  205  A    between atoms: _496  and  _497
REMARK  206  A    between atoms: _501  and  _502
REMARK  207  A    between atoms: _507  and  _509
REMARK  208  A    between atoms: _509  and  _510
REMARK  209  A    between atoms: _509  and  _512
REMARK  210  A    between atoms: _515  and  _517
REMARK  211  A    between atoms: _517  and  _518
REMARK  212  A    between atoms: _517  and  _520
REMARK  213  A    between atoms: _520  and  _521
REMARK  214  A    between atoms: _526  and  _528
REMARK  215  A    between atoms: _528  and  _529
REMARK  216  A    between atoms: _528  and  _531
REMARK  217  A    between atoms: _531  and  _532
REMARK  218  A    between atoms: _535  and  _537
REMARK  219  A    between atoms: _537  and  _538
REMARK  220  A    between atoms: _537  and  _540
REMARK  221  A    between atoms: _540  and  _541
REMARK  222  A    between atoms: _544  and  _546
REMARK  223  A    between atoms: _546  and  _547
REMARK  224  A    between atoms: _549  and  _551
REMARK  225  A    between atoms: _551  and  _552
REMARK  226  A    between atoms: _551  and  _554
REMARK  227  A    between atoms: _554  and  _555
REMARK  228  A    between atoms: _555  and  _556
REMARK  229  A    between atoms: _556  and  _557
REMARK                            x       y       z     vdW  Elec       q    Type
REMARK                         _______ _______ _______ _____ _____    ______ ____
ROOT
ATOM      1  O   HOH     1      19.511 -14.522  -7.596  0.00  0.00    +0.000 OA
ENDROOT
TORSDOF 0
REMARK  Name = ../refined-set-2016/4qgi/4qgi_pocket.pdb
REMARK  229 active torsions:
REMARK  status: ('A' for Active; 'I' for Inactive)
REMARK    1  A    between atoms: _1  and  _3
REMARK    2  A    between atoms: _3  and  _4
REMARK    3  A    between atoms: _3  and  _6
REMARK    4  A    between atoms: _6  and  _7
REMARK    5  A    between atoms: _7  and  _8
REMARK    6  A    between atoms: _8  and  _9
REMARK    7  A    between atoms: _18  and  _20
REMARK    8  A    between atoms: _20  and  _21
REMARK    9  A    between atoms: _20  and  _23
REMARK   10  A    between atoms: _23  and  _24
REMARK   11  A    between atoms: _27  and  _29
REMARK   12  A    between atoms: _29  and  _30
REMARK   13  A    between atoms: _29  and  _32
REMARK   14  A    between atoms: _32  and  _33
REMARK   15  A    between atoms: _36  and  _38
REMARK   16  A    between atoms: _38  and  _39
REMARK   17  A    between atoms: _38  and  _41
REMARK   18  A    between atoms: _41  and  _42
REMARK   19  A    between atoms: _45  and  _47
REMARK   20  A    between atoms: _47  and  _48
REMARK   21  A    between atoms: _47  and  _50
REMARK   22  A    between atoms: _50  and  _51
REMARK   23  A    between atoms: _54  and  _56
REMARK   24  A    between atoms: _56  and  _57
REMARK   25  A    between atoms: _59  and  _61
REMARK   26  A    between atoms: _61  and  _62
REMARK   27  A    between atoms: _65  and  _67
REMARK   28  A    between atoms: _67  and  _68
REMARK   29  A    between atoms: _67  and  _70
REMARK   30  A    between atoms: _70  and  _71
REMARK   31  A    between atoms: _74  and  _76
REMARK   32  A    between atoms: _76  and  _77
REMARK   33  A    between atoms: _76  and  _79
REMARK   34  A    between atoms: _79  and  _80
REMARK   35  A    between atoms: _83  and  _85
REMARK   36  A    between atoms: _85  and  _86
REMARK   37  A    between atoms: _85  and  _88
REMARK   38  A    between atoms: _88  and  _89
REMARK   39  A    between atoms: _92  and  _94
REMARK   40  A    between atoms: _94  and  _95
REMARK   41  A    between atoms: _94  and  _97
REMARK   42  A    between atoms: _100  and  _102
REMARK   43  A    between atoms: _102  and  _103
REMARK   44  A    between atoms: _102  and  _105
REMARK   45  A    between atoms: _105  and  _106
REMARK   46  A    between atoms: _106  and  _107
REMARK   47  A    between atoms: _107  and  _108
REMARK   48  A    between atoms: _108  and  _109
REMARK   49  A    between atoms: _113  and  _115
REMARK   50  A    between atoms: _115  and  _116
REMARK   51  A    between atoms: _115  and  _118
REMARK   52  A    between atoms: _118  and  _119
REMARK   53  A    between atoms: _119  and  _120
REMARK   54  A    between atoms: _122  and  _124
REMARK   55  A    between atoms: _124  and  _125
REMARK   56  A    between atoms: _124  and  _127
REMARK   57  A    between atoms: _127  and  _128
REMARK   58  A    between atoms: _131  and  _133
REMARK   59  A    between atoms: _133  and  _134
REMARK   60  A    between atoms: _133  and  _136
REMARK   61  A    between atoms: _136  and  _137
REMARK   62  A    between atoms: _140  and  _142
REMARK   63  A    between atoms: _142  and  _143
REMARK   64  A    between atoms: _145  and  _147
REMARK   65  A    between atoms: _147  and  _148
REMARK   66  A    between atoms: _147  and  _150
REMARK   67  A    between atoms: _150  and  _151
REMARK   68  A    between atoms: _154  and  _156
REMARK   69  A    between atoms: _156  and  _157
REMARK   70  A    between atoms: _159  and  _161
REMARK   71  A    between atoms: _161  and  _162
REMARK   72  A    between atoms: _164  and  _166
REMARK   73  A    between atoms: _166  and  _167
REMARK   74  A    between atoms: _166  and  _169
REMARK   75  A    between atoms: _169  and  _170
REMARK   76  A    between atoms: _176  and  _178
REMARK   77  A    between atoms: _178  and  _179
REMARK   78  A    between atoms: _178  and  _181
REMARK   79  A    between atoms: _181  and  _182
REMARK   80  A    between atoms: _185  and  _187
REMARK   81  A    between atoms: _187  and  _188
REMARK   82  A    between atoms: _187  and  _190
REMARK   83  A    between atoms: _193  and  _195
REMARK   84  A    between atoms: _195  and  _196
REMARK   85  A    between atoms: _195  and  _198
REMARK   86  A    between atoms: _198  and  _199
REMARK   87  A    between atoms: _203  and  _204
REMARK   88  A    between atoms: _209  and  _211
REMARK   89  A    between atoms: _211  and  _212
REMARK   90  A    between atoms: _211  and  _214
REMARK   91  A    between atoms: _214  and  _215
REMARK   92  A    between atoms: _219  and  _220
REMARK   93  A    between atoms: _225  and  _227
REMARK   94  A    between atoms: _227  and  _228
REMARK   95  A    between atoms: _227  and  _230
REMARK   96  A    between atoms: _233  and  _235
REMARK   97  A    between atoms: _235  and  _236
REMARK   98  A    between atoms: _235  and  _238
REMARK   99  A    between atoms: _238  and  _239
REMARK  100  A    between atoms: _244  and  _246
REMARK  101  A    between atoms: _246  and  _247
REMARK  102  A    between atoms: _246  and  _249
REMARK  103  A    between atoms: _249  and  _250
REMARK  104  A    between atoms: _253  and  _255
REMARK  105  A    between atoms: _255  and  _256
REMARK  106  A    between atoms: _255  and  _258
REMARK  107  A    between atoms: _258  and  _259
REMARK  108  A    between atoms: _262  and  _264
REMARK  109  A    between atoms: _264  and  _265
REMARK  110  A    between atoms: _267  and  _269
REMARK  111  A    between atoms: _269  and  _270
REMARK  112  A    between atoms: _269  and  _272
REMARK  113  A    between atoms: _272  and  _273
REMARK  114  A    between atoms: _273  and  _274
REMARK  115  A    between atoms: _274  and  _275
REMARK  116  A    between atoms: _284  and  _286
REMARK  117  A    between atoms: _286  and  _287
REMARK  118  A    between atoms: _286  and  _289
REMARK  119  A    between atoms: _289  and  _290
REMARK  120  A    between atoms: _295  and  _297
REMARK  121  A    between atoms: _297  and  _298
REMARK  122  A    between atoms: _297  and  _300
REMARK  123  A    between atoms: _300  and  _301
REMARK  124  A    between atoms: _301  and  _302
REMARK  125  A    between atoms: _302  and  _303
REMARK  126  A    between atoms: _312  and  _314
REMARK  127  A    between atoms: _314  and  _315
REMARK  128  A    between atoms: _314  and  _317
REMARK  129  A    between atoms: _317  and  _318
REMARK  130  A    between atoms: _321  and  _323
REMARK  131  A    between atoms: _323  and  _324
REMARK  132  A    between atoms: _323  and  _326
REMARK  133  A    between atoms: _326  and  _327
REMARK  134  A    between atoms: _330  and  _332
REMARK  135  A    between atoms: _332  and  _333
REMARK  136  A    between atoms: _332  and  _335
REMARK  137  A    between atoms: _335  and  _336
REMARK  138  A    between atoms: _339  and  _341
REMARK  139  A    between atoms: _341  and  _342
REMARK  140  A    between atoms: _341  and  _344
REMARK  141  A    between atoms: _344  and  _345
REMARK  142  A    between atoms: _348  and  _350
REMARK  143  A    between atoms: _350  and  _351
REMARK  144  A    between atoms: _353  and  _355
REMARK  145  A    between atoms: _355  and  _356
REMARK  146  A    between atoms: _359  and  _361
REMARK  147  A    between atoms: _361  and  _362
REMARK  148  A    between atoms: _361  and  _364
REMARK  149  A    between atoms: _364  and  _365
REMARK  150  A    between atoms: _368  and  _370
REMARK  151  A    between atoms: _370  and  _371
REMARK  152  A    between atoms: _370  and  _373
REMARK  153  A    between atoms: _373  and  _374
REMARK  154  A    between atoms: _377  and  _379
REMARK  155  A    between atoms: _379  and  _380
REMARK  156  A    between atoms: _379  and  _382
REMARK  157  A    between atoms: _382  and  _383
REMARK  158  A    between atoms: _386  and  _388
REMARK  159  A    between atoms: _388  and  _389
REMARK  160  A    between atoms: _388  and  _391
REMARK  161  A    between atoms: _394  and  _396
REMARK  162  A    between atoms: _396  and  _397
REMARK  163  A    between atoms: _396  and  _399
REMARK  164  A    between atoms: _399  and  _400
REMARK  165  A    between atoms: _403  and  _405
REMARK  166  A    between atoms: _405  and  _406
REMARK  167  A    between atoms: _405  and  _408
REMARK  168  A    between atoms: _408  and  _409
REMARK  169  A    between atoms: _409  and  _410
REMARK  170  A    between atoms: _410  and  _411
REMARK  171  A    between atoms: _411  and  _412
REMARK  172  A    between atoms: _416  and  _418
REMARK  173  A    between atoms: _418  and  _419
REMARK  174  A    between atoms: _418  and  _421
REMARK  175  A    between atoms: _421  and  _422
REMARK  176  A    between atoms: _425  and  _427
REMARK  177  A    between atoms: _427  and  _428
REMARK  178  A    between atoms: _427  and  _430
REMARK  179  A    between atoms: _430  and  _431
REMARK  180  A    between atoms: _434  and  _436
REMARK  181  A    between atoms: _436  and  _437
REMARK  182  A    between atoms: _439  and  _441
REMARK  183  A    between atoms: _441  and  _442
REMARK  184  A    between atoms: _441  and  _444
REMARK  185  A    between atoms: _444  and  _445
REMARK  186  A    between atoms: _448  and  _450
REMARK  187  A    between atoms: _450  and  _451
REMARK  188  A    between atoms: _453  and  _455
REMARK  189  A    between atoms: _455  and  _456
REMARK  190  A    between atoms: _458  and  _460
REMARK  191  A    between atoms: _460  and  _461
REMARK  192  A    between atoms: _460  and  _463
REMARK  193  A    between atoms: _463  and  _464
REMARK  194  A    between atoms: _467  and  _469
REMARK  195  A    between atoms: _469  and  _470
REMARK  196  A    between atoms: _469  and  _472
REMARK  197  A    between atoms: _475  and  _477
REMARK  198  A    between atoms: _477  and  _478
REMARK  199  A    between atoms: _477  and  _480
REMARK  200  A    between atoms: _480  and  _481
REMARK  201  A    between atoms: _485  and  _486
REMARK  202  A    between atoms: _491  and  _493
REMARK  203  A    between atoms: _493  and  _494
REMARK  204  A    between atoms: _493  and  _496
REMARK  205  A    between atoms: _496  and  _497
REMARK  206  A    between atoms: _501  and  _502
REMARK  207  A    between atoms: _507  and  _509
REMARK  208  A    between atoms: _509  and  _510
REMARK  209  A    between atoms: _509  and  _512
REMARK  210  A    between atoms: _515  and  _517
REMARK  211  A    between atoms: _517  and  _518
REMARK  212  A    between atoms: _517  and  _520
REMARK  213  A    between atoms: _520  and  _521
REMARK  214  A    between atoms: _526  and  _528
REMARK  215  A    between atoms: _528  and  _529
REMARK  216  A    between atoms: _528  and  _531
REMARK  217  A    between atoms: _531  and  _532
REMARK  218  A    between atoms: _535  and  _537
REMARK  219  A    between atoms: _537  and  _538
REMARK  220  A    between atoms: _537  and  _540
REMARK  221  A    between atoms: _540  and  _541
REMARK  222  A    between atoms: _544  and  _546
REMARK  223  A    between atoms: _546  and  _547
REMARK  224  A    between atoms: _549  and  _551
REMARK  225  A    between atoms: _551  and  _552
REMARK  226  A    between atoms: _551  and  _554
REMARK  227  A    between atoms: _554  and  _555
REMARK  228  A    between atoms: _555  and  _556
REMARK  229  A    between atoms: _556  and  _557
REMARK                            x       y       z     vdW  Elec       q    Type
REMARK                         _______ _______ _______ _____ _____    ______ ____
ROOT
ATOM      1  O   HOH     1      17.102  -5.935 -22.282  0.00  0.00    +0.000 OA
ENDROOT
TORSDOF 0
REMARK  Name = ../refined-set-2016/4qgi/4qgi_pocket.pdb
REMARK  229 active torsions:
REMARK  status: ('A' for Active; 'I' for Inactive)
REMARK    1  A    between atoms: _1  and  _3
REMARK    2  A    between atoms: _3  and  _4
REMARK    3  A    between atoms: _3  and  _6
REMARK    4  A    between atoms: _6  and  _7
REMARK    5  A    between atoms: _7  and  _8
REMARK    6  A    between atoms: _8  and  _9
REMARK    7  A    between atoms: _18  and  _20
REMARK    8  A    between atoms: _20  and  _21
REMARK    9  A    between atoms: _20  and  _23
REMARK   10  A    between atoms: _23  and  _24
REMARK   11  A    between atoms: _27  and  _29
REMARK   12  A    between atoms: _29  and  _30
REMARK   13  A    between atoms: _29  and  _32
REMARK   14  A    between atoms: _32  and  _33
REMARK   15  A    between atoms: _36  and  _38
REMARK   16  A    between atoms: _38  and  _39
REMARK   17  A    between atoms: _38  and  _41
REMARK   18  A    between atoms: _41  and  _42
REMARK   19  A    between atoms: _45  and  _47
REMARK   20  A    between atoms: _47  and  _48
REMARK   21  A    between atoms: _47  and  _50
REMARK   22  A    between atoms: _50  and  _51
REMARK   23  A    between atoms: _54  and  _56
REMARK   24  A    between atoms: _56  and  _57
REMARK   25  A    between atoms: _59  and  _61
REMARK   26  A    between atoms: _61  and  _62
REMARK   27  A    between atoms: _65  and  _67
REMARK   28  A    between atoms: _67  and  _68
REMARK   29  A    between atoms: _67  and  _70
REMARK   30  A    between atoms: _70  and  _71
REMARK   31  A    between atoms: _74  and  _76
REMARK   32  A    between atoms: _76  and  _77
REMARK   33  A    between atoms: _76  and  _79
REMARK   34  A    between atoms: _79  and  _80
REMARK   35  A    between atoms: _83  and  _85
REMARK   36  A    between atoms: _85  and  _86
REMARK   37  A    between atoms: _85  and  _88
REMARK   38  A    between atoms: _88  and  _89
REMARK   39  A    between atoms: _92  and  _94
REMARK   40  A    between atoms: _94  and  _95
REMARK   41  A    between atoms: _94  and  _97
REMARK   42  A    between atoms: _100  and  _102
REMARK   43  A    between atoms: _102  and  _103
REMARK   44  A    between atoms: _102  and  _105
REMARK   45  A    between atoms: _105  and  _106
REMARK   46  A    between atoms: _106  and  _107
REMARK   47  A    between atoms: _107  and  _108
REMARK   48  A    between atoms: _108  and  _109
REMARK   49  A    between atoms: _113  and  _115
REMARK   50  A    between atoms: _115  and  _116
REMARK   51  A    between atoms: _115  and  _118
REMARK   52  A    between atoms: _118  and  _119
REMARK   53  A    between atoms: _119  and  _120
REMARK   54  A    between atoms: _122  and  _124
REMARK   55  A    between atoms: _124  and  _125
REMARK   56  A    between atoms: _124  and  _127
REMARK   57  A    between atoms: _127  and  _128
REMARK   58  A    between atoms: _131  and  _133
REMARK   59  A    between atoms: _133  and  _134
REMARK   60  A    between atoms: _133  and  _136
REMARK   61  A    between atoms: _136  and  _137
REMARK   62  A    between atoms: _140  and  _142
REMARK   63  A    between atoms: _142  and  _143
REMARK   64  A    between atoms: _145  and  _147
REMARK   65  A    between atoms: _147  and  _148
REMARK   66  A    between atoms: _147  and  _150
REMARK   67  A    between atoms: _150  and  _151
REMARK   68  A    between atoms: _154  and  _156
REMARK   69  A    between atoms: _156  and  _157
REMARK   70  A    between atoms: _159  and  _161
REMARK   71  A    between atoms: _161  and  _162
REMARK   72  A    between atoms: _164  and  _166
REMARK   73  A    between atoms: _166  and  _167
REMARK   74  A    between atoms: _166  and  _169
REMARK   75  A    between atoms: _169  and  _170
REMARK   76  A    between atoms: _176  and  _178
REMARK   77  A    between atoms: _178  and  _179
REMARK   78  A    between atoms: _178  and  _181
REMARK   79  A    between atoms: _181  and  _182
REMARK   80  A    between atoms: _185  and  _187
REMARK   81  A    between atoms: _187  and  _188
REMARK   82  A    between atoms: _187  and  _190
REMARK   83  A    between atoms: _193  and  _195
REMARK   84  A    between atoms: _195  and  _196
REMARK   85  A    between atoms: _195  and  _198
REMARK   86  A    between atoms: _198  and  _199
REMARK   87  A    between atoms: _203  and  _204
REMARK   88  A    between atoms: _209  and  _211
REMARK   89  A    between atoms: _211  and  _212
REMARK   90  A    between atoms: _211  and  _214
REMARK   91  A    between atoms: _214  and  _215
REMARK   92  A    between atoms: _219  and  _220
REMARK   93  A    between atoms: _225  and  _227
REMARK   94  A    between atoms: _227  and  _228
REMARK   95  A    between atoms: _227  and  _230
REMARK   96  A    between atoms: _233  and  _235
REMARK   97  A    between atoms: _235  and  _236
REMARK   98  A    between atoms: _235  and  _238
REMARK   99  A    between atoms: _238  and  _239
REMARK  100  A    between atoms: _244  and  _246
REMARK  101  A    between atoms: _246  and  _247
REMARK  102  A    between atoms: _246  and  _249
REMARK  103  A    between atoms: _249  and  _250
REMARK  104  A    between atoms: _253  and  _255
REMARK  105  A    between atoms: _255  and  _256
REMARK  106  A    between atoms: _255  and  _258
REMARK  107  A    between atoms: _258  and  _259
REMARK  108  A    between atoms: _262  and  _264
REMARK  109  A    between atoms: _264  and  _265
REMARK  110  A    between atoms: _267  and  _269
REMARK  111  A    between atoms: _269  and  _270
REMARK  112  A    between atoms: _269  and  _272
REMARK  113  A    between atoms: _272  and  _273
REMARK  114  A    between atoms: _273  and  _274
REMARK  115  A    between atoms: _274  and  _275
REMARK  116  A    between atoms: _284  and  _286
REMARK  117  A    between atoms: _286  and  _287
REMARK  118  A    between atoms: _286  and  _289
REMARK  119  A    between atoms: _289  and  _290
REMARK  120  A    between atoms: _295  and  _297
REMARK  121  A    between atoms: _297  and  _298
REMARK  122  A    between atoms: _297  and  _300
REMARK  123  A    between atoms: _300  and  _301
REMARK  124  A    between atoms: _301  and  _302
REMARK  125  A    between atoms: _302  and  _303
REMARK  126  A    between atoms: _312  and  _314
REMARK  127  A    between atoms: _314  and  _315
REMARK  128  A    between atoms: _314  and  _317
REMARK  129  A    between atoms: _317  and  _318
REMARK  130  A    between atoms: _321  and  _323
REMARK  131  A    between atoms: _323  and  _324
REMARK  132  A    between atoms: _323  and  _326
REMARK  133  A    between atoms: _326  and  _327
REMARK  134  A    between atoms: _330  and  _332
REMARK  135  A    between atoms: _332  and  _333
REMARK  136  A    between atoms: _332  and  _335
REMARK  137  A    between atoms: _335  and  _336
REMARK  138  A    between atoms: _339  and  _341
REMARK  139  A    between atoms: _341  and  _342
REMARK  140  A    between atoms: _341  and  _344
REMARK  141  A    between atoms: _344  and  _345
REMARK  142  A    between atoms: _348  and  _350
REMARK  143  A    between atoms: _350  and  _351
REMARK  144  A    between atoms: _353  and  _355
REMARK  145  A    between atoms: _355  and  _356
REMARK  146  A    between atoms: _359  and  _361
REMARK  147  A    between atoms: _361  and  _362
REMARK  148  A    between atoms: _361  and  _364
REMARK  149  A    between atoms: _364  and  _365
REMARK  150  A    between atoms: _368  and  _370
REMARK  151  A    between atoms: _370  and  _371
REMARK  152  A    between atoms: _370  and  _373
REMARK  153  A    between atoms: _373  and  _374
REMARK  154  A    between atoms: _377  and  _379
REMARK  155  A    between atoms: _379  and  _380
REMARK  156  A    between atoms: _379  and  _382
REMARK  157  A    between atoms: _382  and  _383
REMARK  158  A    between atoms: _386  and  _388
REMARK  159  A    between atoms: _388  and  _389
REMARK  160  A    between atoms: _388  and  _391
REMARK  161  A    between atoms: _394  and  _396
REMARK  162  A    between atoms: _396  and  _397
REMARK  163  A    between atoms: _396  and  _399
REMARK  164  A    between atoms: _399  and  _400
REMARK  165  A    between atoms: _403  and  _405
REMARK  166  A    between atoms: _405  and  _406
REMARK  167  A    between atoms: _405  and  _408
REMARK  168  A    between atoms: _408  and  _409
REMARK  169  A    between atoms: _409  and  _410
REMARK  170  A    between atoms: _410  and  _411
REMARK  171  A    between atoms: _411  and  _412
REMARK  172  A    between atoms: _416  and  _418
REMARK  173  A    between atoms: _418  and  _419
REMARK  174  A    between atoms: _418  and  _421
REMARK  175  A    between atoms: _421  and  _422
REMARK  176  A    between atoms: _425  and  _427
REMARK  177  A    between atoms: _427  and  _428
REMARK  178  A    between atoms: _427  and  _430
REMARK  179  A    between atoms: _430  and  _431
REMARK  180  A    between atoms: _434  and  _436
REMARK  181  A    between atoms: _436  and  _437
REMARK  182  A    between atoms: _439  and  _441
REMARK  183  A    between atoms: _441  and  _442
REMARK  184  A    between atoms: _441  and  _444
REMARK  185  A    between atoms: _444  and  _445
REMARK  186  A    between atoms: _448  and  _450
REMARK  187  A    between atoms: _450  and  _451
REMARK  188  A    between atoms: _453  and  _455
REMARK  189  A    between atoms: _455  and  _456
REMARK  190  A    between atoms: _458  and  _460
REMARK  191  A    between atoms: _460  and  _461
REMARK  192  A    between atoms: _460  and  _463
REMARK  193  A    between atoms: _463  and  _464
REMARK  194  A    between atoms: _467  and  _469
REMARK  195  A    between atoms: _469  and  _470
REMARK  196  A    between atoms: _469  and  _472
REMARK  197  A    between atoms: _475  and  _477
REMARK  198  A    between atoms: _477  and  _478
REMARK  199  A    between atoms: _477  and  _480
REMARK  200  A    between atoms: _480  and  _481
REMARK  201  A    between atoms: _485  and  _486
REMARK  202  A    between atoms: _491  and  _493
REMARK  203  A    between atoms: _493  and  _494
REMARK  204  A    between atoms: _493  and  _496
REMARK  205  A    between atoms: _496  and  _497
REMARK  206  A    between atoms: _501  and  _502
REMARK  207  A    between atoms: _507  and  _509
REMARK  208  A    between atoms: _509  and  _510
REMARK  209  A    between atoms: _509  and  _512
REMARK  210  A    between atoms: _515  and  _517
REMARK  211  A    between atoms: _517  and  _518
REMARK  212  A    between atoms: _517  and  _520
REMARK  213  A    between atoms: _520  and  _521
REMARK  214  A    between atoms: _526  and  _528
REMARK  215  A    between atoms: _528  and  _529
REMARK  216  A    between atoms: _528  and  _531
REMARK  217  A    between atoms: _531  and  _532
REMARK  218  A    between atoms: _535  and  _537
REMARK  219  A    between atoms: _537  and  _538
REMARK  220  A    between atoms: _537  and  _540
REMARK  221  A    between atoms: _540  and  _541
REMARK  222  A    between atoms: _544  and  _546
REMARK  223  A    between atoms: _546  and  _547
REMARK  224  A    between atoms: _549  and  _551
REMARK  225  A    between atoms: _551  and  _552
REMARK  226  A    between atoms: _551  and  _554
REMARK  227  A    between atoms: _554  and  _555
REMARK  228  A    between atoms: _555  and  _556
REMARK  229  A    between atoms: _556  and  _557
REMARK                            x       y       z     vdW  Elec       q    Type
REMARK                         _______ _______ _______ _____ _____    ______ ____
ROOT
ATOM      1  O   HOH     1      20.846  -8.349 -17.190  0.00  0.00    +0.000 OA
ENDROOT
TORSDOF 0
REMARK  Name = ../refined-set-2016/4qgi/4qgi_pocket.pdb
REMARK  229 active torsions:
REMARK  status: ('A' for Active; 'I' for Inactive)
REMARK    1  A    between atoms: _1  and  _3
REMARK    2  A    between atoms: _3  and  _4
REMARK    3  A    between atoms: _3  and  _6
REMARK    4  A    between atoms: _6  and  _7
REMARK    5  A    between atoms: _7  and  _8
REMARK    6  A    between atoms: _8  and  _9
REMARK    7  A    between atoms: _18  and  _20
REMARK    8  A    between atoms: _20  and  _21
REMARK    9  A    between atoms: _20  and  _23
REMARK   10  A    between atoms: _23  and  _24
REMARK   11  A    between atoms: _27  and  _29
REMARK   12  A    between atoms: _29  and  _30
REMARK   13  A    between atoms: _29  and  _32
REMARK   14  A    between atoms: _32  and  _33
REMARK   15  A    between atoms: _36  and  _38
REMARK   16  A    between atoms: _38  and  _39
REMARK   17  A    between atoms: _38  and  _41
REMARK   18  A    between atoms: _41  and  _42
REMARK   19  A    between atoms: _45  and  _47
REMARK   20  A    between atoms: _47  and  _48
REMARK   21  A    between atoms: _47  and  _50
REMARK   22  A    between atoms: _50  and  _51
REMARK   23  A    between atoms: _54  and  _56
REMARK   24  A    between atoms: _56  and  _57
REMARK   25  A    between atoms: _59  and  _61
REMARK   26  A    between atoms: _61  and  _62
REMARK   27  A    between atoms: _65  and  _67
REMARK   28  A    between atoms: _67  and  _68
REMARK   29  A    between atoms: _67  and  _70
REMARK   30  A    between atoms: _70  and  _71
REMARK   31  A    between atoms: _74  and  _76
REMARK   32  A    between atoms: _76  and  _77
REMARK   33  A    between atoms: _76  and  _79
REMARK   34  A    between atoms: _79  and  _80
REMARK   35  A    between atoms: _83  and  _85
REMARK   36  A    between atoms: _85  and  _86
REMARK   37  A    between atoms: _85  and  _88
REMARK   38  A    between atoms: _88  and  _89
REMARK   39  A    between atoms: _92  and  _94
REMARK   40  A    between atoms: _94  and  _95
REMARK   41  A    between atoms: _94  and  _97
REMARK   42  A    between atoms: _100  and  _102
REMARK   43  A    between atoms: _102  and  _103
REMARK   44  A    between atoms: _102  and  _105
REMARK   45  A    between atoms: _105  and  _106
REMARK   46  A    between atoms: _106  and  _107
REMARK   47  A    between atoms: _107  and  _108
REMARK   48  A    between atoms: _108  and  _109
REMARK   49  A    between atoms: _113  and  _115
REMARK   50  A    between atoms: _115  and  _116
REMARK   51  A    between atoms: _115  and  _118
REMARK   52  A    between atoms: _118  and  _119
REMARK   53  A    between atoms: _119  and  _120
REMARK   54  A    between atoms: _122  and  _124
REMARK   55  A    between atoms: _124  and  _125
REMARK   56  A    between atoms: _124  and  _127
REMARK   57  A    between atoms: _127  and  _128
REMARK   58  A    between atoms: _131  and  _133
REMARK   59  A    between atoms: _133  and  _134
REMARK   60  A    between atoms: _133  and  _136
REMARK   61  A    between atoms: _136  and  _137
REMARK   62  A    between atoms: _140  and  _142
REMARK   63  A    between atoms: _142  and  _143
REMARK   64  A    between atoms: _145  and  _147
REMARK   65  A    between atoms: _147  and  _148
REMARK   66  A    between atoms: _147  and  _150
REMARK   67  A    between atoms: _150  and  _151
REMARK   68  A    between atoms: _154  and  _156
REMARK   69  A    between atoms: _156  and  _157
REMARK   70  A    between atoms: _159  and  _161
REMARK   71  A    between atoms: _161  and  _162
REMARK   72  A    between atoms: _164  and  _166
REMARK   73  A    between atoms: _166  and  _167
REMARK   74  A    between atoms: _166  and  _169
REMARK   75  A    between atoms: _169  and  _170
REMARK   76  A    between atoms: _176  and  _178
REMARK   77  A    between atoms: _178  and  _179
REMARK   78  A    between atoms: _178  and  _181
REMARK   79  A    between atoms: _181  and  _182
REMARK   80  A    between atoms: _185  and  _187
REMARK   81  A    between atoms: _187  and  _188
REMARK   82  A    between atoms: _187  and  _190
REMARK   83  A    between atoms: _193  and  _195
REMARK   84  A    between atoms: _195  and  _196
REMARK   85  A    between atoms: _195  and  _198
REMARK   86  A    between atoms: _198  and  _199
REMARK   87  A    between atoms: _203  and  _204
REMARK   88  A    between atoms: _209  and  _211
REMARK   89  A    between atoms: _211  and  _212
REMARK   90  A    between atoms: _211  and  _214
REMARK   91  A    between atoms: _214  and  _215
REMARK   92  A    between atoms: _219  and  _220
REMARK   93  A    between atoms: _225  and  _227
REMARK   94  A    between atoms: _227  and  _228
REMARK   95  A    between atoms: _227  and  _230
REMARK   96  A    between atoms: _233  and  _235
REMARK   97  A    between atoms: _235  and  _236
REMARK   98  A    between atoms: _235  and  _238
REMARK   99  A    between atoms: _238  and  _239
REMARK  100  A    between atoms: _244  and  _246
REMARK  101  A    between atoms: _246  and  _247
REMARK  102  A    between atoms: _246  and  _249
REMARK  103  A    between atoms: _249  and  _250
REMARK  104  A    between atoms: _253  and  _255
REMARK  105  A    between atoms: _255  and  _256
REMARK  106  A    between atoms: _255  and  _258
REMARK  107  A    between atoms: _258  and  _259
REMARK  108  A    between atoms: _262  and  _264
REMARK  109  A    between atoms: _264  and  _265
REMARK  110  A    between atoms: _267  and  _269
REMARK  111  A    between atoms: _269  and  _270
REMARK  112  A    between atoms: _269  and  _272
REMARK  113  A    between atoms: _272  and  _273
REMARK  114  A    between atoms: _273  and  _274
REMARK  115  A    between atoms: _274  and  _275
REMARK  116  A    between atoms: _284  and  _286
REMARK  117  A    between atoms: _286  and  _287
REMARK  118  A    between atoms: _286  and  _289
REMARK  119  A    between atoms: _289  and  _290
REMARK  120  A    between atoms: _295  and  _297
REMARK  121  A    between atoms: _297  and  _298
REMARK  122  A    between atoms: _297  and  _300
REMARK  123  A    between atoms: _300  and  _301
REMARK  124  A    between atoms: _301  and  _302
REMARK  125  A    between atoms: _302  and  _303
REMARK  126  A    between atoms: _312  and  _314
REMARK  127  A    between atoms: _314  and  _315
REMARK  128  A    between atoms: _314  and  _317
REMARK  129  A    between atoms: _317  and  _318
REMARK  130  A    between atoms: _321  and  _323
REMARK  131  A    between atoms: _323  and  _324
REMARK  132  A    between atoms: _323  and  _326
REMARK  133  A    between atoms: _326  and  _327
REMARK  134  A    between atoms: _330  and  _332
REMARK  135  A    between atoms: _332  and  _333
REMARK  136  A    between atoms: _332  and  _335
REMARK  137  A    between atoms: _335  and  _336
REMARK  138  A    between atoms: _339  and  _341
REMARK  139  A    between atoms: _341  and  _342
REMARK  140  A    between atoms: _341  and  _344
REMARK  141  A    between atoms: _344  and  _345
REMARK  142  A    between atoms: _348  and  _350
REMARK  143  A    between atoms: _350  and  _351
REMARK  144  A    between atoms: _353  and  _355
REMARK  145  A    between atoms: _355  and  _356
REMARK  146  A    between atoms: _359  and  _361
REMARK  147  A    between atoms: _361  and  _362
REMARK  148  A    between atoms: _361  and  _364
REMARK  149  A    between atoms: _364  and  _365
REMARK  150  A    between atoms: _368  and  _370
REMARK  151  A    between atoms: _370  and  _371
REMARK  152  A    between atoms: _370  and  _373
REMARK  153  A    between atoms: _373  and  _374
REMARK  154  A    between atoms: _377  and  _379
REMARK  155  A    between atoms: _379  and  _380
REMARK  156  A    between atoms: _379  and  _382
REMARK  157  A    between atoms: _382  and  _383
REMARK  158  A    between atoms: _386  and  _388
REMARK  159  A    between atoms: _388  and  _389
REMARK  160  A    between atoms: _388  and  _391
REMARK  161  A    between atoms: _394  and  _396
REMARK  162  A    between atoms: _396  and  _397
REMARK  163  A    between atoms: _396  and  _399
REMARK  164  A    between atoms: _399  and  _400
REMARK  165  A    between atoms: _403  and  _405
REMARK  166  A    between atoms: _405  and  _406
REMARK  167  A    between atoms: _405  and  _408
REMARK  168  A    between atoms: _408  and  _409
REMARK  169  A    between atoms: _409  and  _410
REMARK  170  A    between atoms: _410  and  _411
REMARK  171  A    between atoms: _411  and  _412
REMARK  172  A    between atoms: _416  and  _418
REMARK  173  A    between atoms: _418  and  _419
REMARK  174  A    between atoms: _418  and  _421
REMARK  175  A    between atoms: _421  and  _422
REMARK  176  A    between atoms: _425  and  _427
REMARK  177  A    between atoms: _427  and  _428
REMARK  178  A    between atoms: _427  and  _430
REMARK  179  A    between atoms: _430  and  _431
REMARK  180  A    between atoms: _434  and  _436
REMARK  181  A    between atoms: _436  and  _437
REMARK  182  A    between atoms: _439  and  _441
REMARK  183  A    between atoms: _441  and  _442
REMARK  184  A    between atoms: _441  and  _444
REMARK  185  A    between atoms: _444  and  _445
REMARK  186  A    between atoms: _448  and  _450
REMARK  187  A    between atoms: _450  and  _451
REMARK  188  A    between atoms: _453  and  _455
REMARK  189  A    between atoms: _455  and  _456
REMARK  190  A    between atoms: _458  and  _460
REMARK  191  A    between atoms: _460  and  _461
REMARK  192  A    between atoms: _460  and  _463
REMARK  193  A    between atoms: _463  and  _464
REMARK  194  A    between atoms: _467  and  _469
REMARK  195  A    between atoms: _469  and  _470
REMARK  196  A    between atoms: _469  and  _472
REMARK  197  A    between atoms: _475  and  _477
REMARK  198  A    between atoms: _477  and  _478
REMARK  199  A    between atoms: _477  and  _480
REMARK  200  A    between atoms: _480  and  _481
REMARK  201  A    between atoms: _485  and  _486
REMARK  202  A    between atoms: _491  and  _493
REMARK  203  A    between atoms: _493  and  _494
REMARK  204  A    between atoms: _493  and  _496
REMARK  205  A    between atoms: _496  and  _497
REMARK  206  A    between atoms: _501  and  _502
REMARK  207  A    between atoms: _507  and  _509
REMARK  208  A    between atoms: _509  and  _510
REMARK  209  A    between atoms: _509  and  _512
REMARK  210  A    between atoms: _515  and  _517
REMARK  211  A    between atoms: _517  and  _518
REMARK  212  A    between atoms: _517  and  _520
REMARK  213  A    between atoms: _520  and  _521
REMARK  214  A    between atoms: _526  and  _528
REMARK  215  A    between atoms: _528  and  _529
REMARK  216  A    between atoms: _528  and  _531
REMARK  217  A    between atoms: _531  and  _532
REMARK  218  A    between atoms: _535  and  _537
REMARK  219  A    between atoms: _537  and  _538
REMARK  220  A    between atoms: _537  and  _540
REMARK  221  A    between atoms: _540  and  _541
REMARK  222  A    between atoms: _544  and  _546
REMARK  223  A    between atoms: _546  and  _547
REMARK  224  A    between atoms: _549  and  _551
REMARK  225  A    between atoms: _551  and  _552
REMARK  226  A    between atoms: _551  and  _554
REMARK  227  A    between atoms: _554  and  _555
REMARK  228  A    between atoms: _555  and  _556
REMARK  229  A    between atoms: _556  and  _557
REMARK                            x       y       z     vdW  Elec       q    Type
REMARK                         _______ _______ _______ _____ _____    ______ ____
ROOT
ATOM      1  O   HOH     1      20.332 -14.823 -16.918  0.00  0.00    +0.000 OA
ENDROOT
TORSDOF 0
REMARK  Name = ../refined-set-2016/4qgi/4qgi_pocket.pdb
REMARK  229 active torsions:
REMARK  status: ('A' for Active; 'I' for Inactive)
REMARK    1  A    between atoms: _1  and  _3
REMARK    2  A    between atoms: _3  and  _4
REMARK    3  A    between atoms: _3  and  _6
REMARK    4  A    between atoms: _6  and  _7
REMARK    5  A    between atoms: _7  and  _8
REMARK    6  A    between atoms: _8  and  _9
REMARK    7  A    between atoms: _18  and  _20
REMARK    8  A    between atoms: _20  and  _21
REMARK    9  A    between atoms: _20  and  _23
REMARK   10  A    between atoms: _23  and  _24
REMARK   11  A    between atoms: _27  and  _29
REMARK   12  A    between atoms: _29  and  _30
REMARK   13  A    between atoms: _29  and  _32
REMARK   14  A    between atoms: _32  and  _33
REMARK   15  A    between atoms: _36  and  _38
REMARK   16  A    between atoms: _38  and  _39
REMARK   17  A    between atoms: _38  and  _41
REMARK   18  A    between atoms: _41  and  _42
REMARK   19  A    between atoms: _45  and  _47
REMARK   20  A    between atoms: _47  and  _48
REMARK   21  A    between atoms: _47  and  _50
REMARK   22  A    between atoms: _50  and  _51
REMARK   23  A    between atoms: _54  and  _56
REMARK   24  A    between atoms: _56  and  _57
REMARK   25  A    between atoms: _59  and  _61
REMARK   26  A    between atoms: _61  and  _62
REMARK   27  A    between atoms: _65  and  _67
REMARK   28  A    between atoms: _67  and  _68
REMARK   29  A    between atoms: _67  and  _70
REMARK   30  A    between atoms: _70  and  _71
REMARK   31  A    between atoms: _74  and  _76
REMARK   32  A    between atoms: _76  and  _77
REMARK   33  A    between atoms: _76  and  _79
REMARK   34  A    between atoms: _79  and  _80
REMARK   35  A    between atoms: _83  and  _85
REMARK   36  A    between atoms: _85  and  _86
REMARK   37  A    between atoms: _85  and  _88
REMARK   38  A    between atoms: _88  and  _89
REMARK   39  A    between atoms: _92  and  _94
REMARK   40  A    between atoms: _94  and  _95
REMARK   41  A    between atoms: _94  and  _97
REMARK   42  A    between atoms: _100  and  _102
REMARK   43  A    between atoms: _102  and  _103
REMARK   44  A    between atoms: _102  and  _105
REMARK   45  A    between atoms: _105  and  _106
REMARK   46  A    between atoms: _106  and  _107
REMARK   47  A    between atoms: _107  and  _108
REMARK   48  A    between atoms: _108  and  _109
REMARK   49  A    between atoms: _113  and  _115
REMARK   50  A    between atoms: _115  and  _116
REMARK   51  A    between atoms: _115  and  _118
REMARK   52  A    between atoms: _118  and  _119
REMARK   53  A    between atoms: _119  and  _120
REMARK   54  A    between atoms: _122  and  _124
REMARK   55  A    between atoms: _124  and  _125
REMARK   56  A    between atoms: _124  and  _127
REMARK   57  A    between atoms: _127  and  _128
REMARK   58  A    between atoms: _131  and  _133
REMARK   59  A    between atoms: _133  and  _134
REMARK   60  A    between atoms: _133  and  _136
REMARK   61  A    between atoms: _136  and  _137
REMARK   62  A    between atoms: _140  and  _142
REMARK   63  A    between atoms: _142  and  _143
REMARK   64  A    between atoms: _145  and  _147
REMARK   65  A    between atoms: _147  and  _148
REMARK   66  A    between atoms: _147  and  _150
REMARK   67  A    between atoms: _150  and  _151
REMARK   68  A    between atoms: _154  and  _156
REMARK   69  A    between atoms: _156  and  _157
REMARK   70  A    between atoms: _159  and  _161
REMARK   71  A    between atoms: _161  and  _162
REMARK   72  A    between atoms: _164  and  _166
REMARK   73  A    between atoms: _166  and  _167
REMARK   74  A    between atoms: _166  and  _169
REMARK   75  A    between atoms: _169  and  _170
REMARK   76  A    between atoms: _176  and  _178
REMARK   77  A    between atoms: _178  and  _179
REMARK   78  A    between atoms: _178  and  _181
REMARK   79  A    between atoms: _181  and  _182
REMARK   80  A    between atoms: _185  and  _187
REMARK   81  A    between atoms: _187  and  _188
REMARK   82  A    between atoms: _187  and  _190
REMARK   83  A    between atoms: _193  and  _195
REMARK   84  A    between atoms: _195  and  _196
REMARK   85  A    between atoms: _195  and  _198
REMARK   86  A    between atoms: _198  and  _199
REMARK   87  A    between atoms: _203  and  _204
REMARK   88  A    between atoms: _209  and  _211
REMARK   89  A    between atoms: _211  and  _212
REMARK   90  A    between atoms: _211  and  _214
REMARK   91  A    between atoms: _214  and  _215
REMARK   92  A    between atoms: _219  and  _220
REMARK   93  A    between atoms: _225  and  _227
REMARK   94  A    between atoms: _227  and  _228
REMARK   95  A    between atoms: _227  and  _230
REMARK   96  A    between atoms: _233  and  _235
REMARK   97  A    between atoms: _235  and  _236
REMARK   98  A    between atoms: _235  and  _238
REMARK   99  A    between atoms: _238  and  _239
REMARK  100  A    between atoms: _244  and  _246
REMARK  101  A    between atoms: _246  and  _247
REMARK  102  A    between atoms: _246  and  _249
REMARK  103  A    between atoms: _249  and  _250
REMARK  104  A    between atoms: _253  and  _255
REMARK  105  A    between atoms: _255  and  _256
REMARK  106  A    between atoms: _255  and  _258
REMARK  107  A    between atoms: _258  and  _259
REMARK  108  A    between atoms: _262  and  _264
REMARK  109  A    between atoms: _264  and  _265
REMARK  110  A    between atoms: _267  and  _269
REMARK  111  A    between atoms: _269  and  _270
REMARK  112  A    between atoms: _269  and  _272
REMARK  113  A    between atoms: _272  and  _273
REMARK  114  A    between atoms: _273  and  _274
REMARK  115  A    between atoms: _274  and  _275
REMARK  116  A    between atoms: _284  and  _286
REMARK  117  A    between atoms: _286  and  _287
REMARK  118  A    between atoms: _286  and  _289
REMARK  119  A    between atoms: _289  and  _290
REMARK  120  A    between atoms: _295  and  _297
REMARK  121  A    between atoms: _297  and  _298
REMARK  122  A    between atoms: _297  and  _300
REMARK  123  A    between atoms: _300  and  _301
REMARK  124  A    between atoms: _301  and  _302
REMARK  125  A    between atoms: _302  and  _303
REMARK  126  A    between atoms: _312  and  _314
REMARK  127  A    between atoms: _314  and  _315
REMARK  128  A    between atoms: _314  and  _317
REMARK  129  A    between atoms: _317  and  _318
REMARK  130  A    between atoms: _321  and  _323
REMARK  131  A    between atoms: _323  and  _324
REMARK  132  A    between atoms: _323  and  _326
REMARK  133  A    between atoms: _326  and  _327
REMARK  134  A    between atoms: _330  and  _332
REMARK  135  A    between atoms: _332  and  _333
REMARK  136  A    between atoms: _332  and  _335
REMARK  137  A    between atoms: _335  and  _336
REMARK  138  A    between atoms: _339  and  _341
REMARK  139  A    between atoms: _341  and  _342
REMARK  140  A    between atoms: _341  and  _344
REMARK  141  A    between atoms: _344  and  _345
REMARK  142  A    between atoms: _348  and  _350
REMARK  143  A    between atoms: _350  and  _351
REMARK  144  A    between atoms: _353  and  _355
REMARK  145  A    between atoms: _355  and  _356
REMARK  146  A    between atoms: _359  and  _361
REMARK  147  A    between atoms: _361  and  _362
REMARK  148  A    between atoms: _361  and  _364
REMARK  149  A    between atoms: _364  and  _365
REMARK  150  A    between atoms: _368  and  _370
REMARK  151  A    between atoms: _370  and  _371
REMARK  152  A    between atoms: _370  and  _373
REMARK  153  A    between atoms: _373  and  _374
REMARK  154  A    between atoms: _377  and  _379
REMARK  155  A    between atoms: _379  and  _380
REMARK  156  A    between atoms: _379  and  _382
REMARK  157  A    between atoms: _382  and  _383
REMARK  158  A    between atoms: _386  and  _388
REMARK  159  A    between atoms: _388  and  _389
REMARK  160  A    between atoms: _388  and  _391
REMARK  161  A    between atoms: _394  and  _396
REMARK  162  A    between atoms: _396  and  _397
REMARK  163  A    between atoms: _396  and  _399
REMARK  164  A    between atoms: _399  and  _400
REMARK  165  A    between atoms: _403  and  _405
REMARK  166  A    between atoms: _405  and  _406
REMARK  167  A    between atoms: _405  and  _408
REMARK  168  A    between atoms: _408  and  _409
REMARK  169  A    between atoms: _409  and  _410
REMARK  170  A    between atoms: _410  and  _411
REMARK  171  A    between atoms: _411  and  _412
REMARK  172  A    between atoms: _416  and  _418
REMARK  173  A    between atoms: _418  and  _419
REMARK  174  A    between atoms: _418  and  _421
REMARK  175  A    between atoms: _421  and  _422
REMARK  176  A    between atoms: _425  and  _427
REMARK  177  A    between atoms: _427  and  _428
REMARK  178  A    between atoms: _427  and  _430
REMARK  179  A    between atoms: _430  and  _431
REMARK  180  A    between atoms: _434  and  _436
REMARK  181  A    between atoms: _436  and  _437
REMARK  182  A    between atoms: _439  and  _441
REMARK  183  A    between atoms: _441  and  _442
REMARK  184  A    between atoms: _441  and  _444
REMARK  185  A    between atoms: _444  and  _445
REMARK  186  A    between atoms: _448  and  _450
REMARK  187  A    between atoms: _450  and  _451
REMARK  188  A    between atoms: _453  and  _455
REMARK  189  A    between atoms: _455  and  _456
REMARK  190  A    between atoms: _458  and  _460
REMARK  191  A    between atoms: _460  and  _461
REMARK  192  A    between atoms: _460  and  _463
REMARK  193  A    between atoms: _463  and  _464
REMARK  194  A    between atoms: _467  and  _469
REMARK  195  A    between atoms: _469  and  _470
REMARK  196  A    between atoms: _469  and  _472
REMARK  197  A    between atoms: _475  and  _477
REMARK  198  A    between atoms: _477  and  _478
REMARK  199  A    between atoms: _477  and  _480
REMARK  200  A    between atoms: _480  and  _481
REMARK  201  A    between atoms: _485  and  _486
REMARK  202  A    between atoms: _491  and  _493
REMARK  203  A    between atoms: _493  and  _494
REMARK  204  A    between atoms: _493  and  _496
REMARK  205  A    between atoms: _496  and  _497
REMARK  206  A    between atoms: _501  and  _502
REMARK  207  A    between atoms: _507  and  _509
REMARK  208  A    between atoms: _509  and  _510
REMARK  209  A    between atoms: _509  and  _512
REMARK  210  A    between atoms: _515  and  _517
REMARK  211  A    between atoms: _517  and  _518
REMARK  212  A    between atoms: _517  and  _520
REMARK  213  A    between atoms: _520  and  _521
REMARK  214  A    between atoms: _526  and  _528
REMARK  215  A    between atoms: _528  and  _529
REMARK  216  A    between atoms: _528  and  _531
REMARK  217  A    between atoms: _531  and  _532
REMARK  218  A    between atoms: _535  and  _537
REMARK  219  A    between atoms: _537  and  _538
REMARK  220  A    between atoms: _537  and  _540
REMARK  221  A    between atoms: _540  and  _541
REMARK  222  A    between atoms: _544  and  _546
REMARK  223  A    between atoms: _546  and  _547
REMARK  224  A    between atoms: _549  and  _551
REMARK  225  A    between atoms: _551  and  _552
REMARK  226  A    between atoms: _551  and  _554
REMARK  227  A    between atoms: _554  and  _555
REMARK  228  A    between atoms: _555  and  _556
REMARK  229  A    between atoms: _556  and  _557
REMARK                            x       y       z     vdW  Elec       q    Type
REMARK                         _______ _______ _______ _____ _____    ______ ____
ROOT
ATOM      1  O   HOH     1       6.692  -7.431  -5.488  0.00  0.00    +0.000 OA
ENDROOT
TORSDOF 0
REMARK  Name = ../refined-set-2016/4qgi/4qgi_pocket.pdb
REMARK  229 active torsions:
REMARK  status: ('A' for Active; 'I' for Inactive)
REMARK    1  A    between atoms: _1  and  _3
REMARK    2  A    between atoms: _3  and  _4
REMARK    3  A    between atoms: _3  and  _6
REMARK    4  A    between atoms: _6  and  _7
REMARK    5  A    between atoms: _7  and  _8
REMARK    6  A    between atoms: _8  and  _9
REMARK    7  A    between atoms: _18  and  _20
REMARK    8  A    between atoms: _20  and  _21
REMARK    9  A    between atoms: _20  and  _23
REMARK   10  A    between atoms: _23  and  _24
REMARK   11  A    between atoms: _27  and  _29
REMARK   12  A    between atoms: _29  and  _30
REMARK   13  A    between atoms: _29  and  _32
REMARK   14  A    between atoms: _32  and  _33
REMARK   15  A    between atoms: _36  and  _38
REMARK   16  A    between atoms: _38  and  _39
REMARK   17  A    between atoms: _38  and  _41
REMARK   18  A    between atoms: _41  and  _42
REMARK   19  A    between atoms: _45  and  _47
REMARK   20  A    between atoms: _47  and  _48
REMARK   21  A    between atoms: _47  and  _50
REMARK   22  A    between atoms: _50  and  _51
REMARK   23  A    between atoms: _54  and  _56
REMARK   24  A    between atoms: _56  and  _57
REMARK   25  A    between atoms: _59  and  _61
REMARK   26  A    between atoms: _61  and  _62
REMARK   27  A    between atoms: _65  and  _67
REMARK   28  A    between atoms: _67  and  _68
REMARK   29  A    between atoms: _67  and  _70
REMARK   30  A    between atoms: _70  and  _71
REMARK   31  A    between atoms: _74  and  _76
REMARK   32  A    between atoms: _76  and  _77
REMARK   33  A    between atoms: _76  and  _79
REMARK   34  A    between atoms: _79  and  _80
REMARK   35  A    between atoms: _83  and  _85
REMARK   36  A    between atoms: _85  and  _86
REMARK   37  A    between atoms: _85  and  _88
REMARK   38  A    between atoms: _88  and  _89
REMARK   39  A    between atoms: _92  and  _94
REMARK   40  A    between atoms: _94  and  _95
REMARK   41  A    between atoms: _94  and  _97
REMARK   42  A    between atoms: _100  and  _102
REMARK   43  A    between atoms: _102  and  _103
REMARK   44  A    between atoms: _102  and  _105
REMARK   45  A    between atoms: _105  and  _106
REMARK   46  A    between atoms: _106  and  _107
REMARK   47  A    between atoms: _107  and  _108
REMARK   48  A    between atoms: _108  and  _109
REMARK   49  A    between atoms: _113  and  _115
REMARK   50  A    between atoms: _115  and  _116
REMARK   51  A    between atoms: _115  and  _118
REMARK   52  A    between atoms: _118  and  _119
REMARK   53  A    between atoms: _119  and  _120
REMARK   54  A    between atoms: _122  and  _124
REMARK   55  A    between atoms: _124  and  _125
REMARK   56  A    between atoms: _124  and  _127
REMARK   57  A    between atoms: _127  and  _128
REMARK   58  A    between atoms: _131  and  _133
REMARK   59  A    between atoms: _133  and  _134
REMARK   60  A    between atoms: _133  and  _136
REMARK   61  A    between atoms: _136  and  _137
REMARK   62  A    between atoms: _140  and  _142
REMARK   63  A    between atoms: _142  and  _143
REMARK   64  A    between atoms: _145  and  _147
REMARK   65  A    between atoms: _147  and  _148
REMARK   66  A    between atoms: _147  and  _150
REMARK   67  A    between atoms: _150  and  _151
REMARK   68  A    between atoms: _154  and  _156
REMARK   69  A    between atoms: _156  and  _157
REMARK   70  A    between atoms: _159  and  _161
REMARK   71  A    between atoms: _161  and  _162
REMARK   72  A    between atoms: _164  and  _166
REMARK   73  A    between atoms: _166  and  _167
REMARK   74  A    between atoms: _166  and  _169
REMARK   75  A    between atoms: _169  and  _170
REMARK   76  A    between atoms: _176  and  _178
REMARK   77  A    between atoms: _178  and  _179
REMARK   78  A    between atoms: _178  and  _181
REMARK   79  A    between atoms: _181  and  _182
REMARK   80  A    between atoms: _185  and  _187
REMARK   81  A    between atoms: _187  and  _188
REMARK   82  A    between atoms: _187  and  _190
REMARK   83  A    between atoms: _193  and  _195
REMARK   84  A    between atoms: _195  and  _196
REMARK   85  A    between atoms: _195  and  _198
REMARK   86  A    between atoms: _198  and  _199
REMARK   87  A    between atoms: _203  and  _204
REMARK   88  A    between atoms: _209  and  _211
REMARK   89  A    between atoms: _211  and  _212
REMARK   90  A    between atoms: _211  and  _214
REMARK   91  A    between atoms: _214  and  _215
REMARK   92  A    between atoms: _219  and  _220
REMARK   93  A    between atoms: _225  and  _227
REMARK   94  A    between atoms: _227  and  _228
REMARK   95  A    between atoms: _227  and  _230
REMARK   96  A    between atoms: _233  and  _235
REMARK   97  A    between atoms: _235  and  _236
REMARK   98  A    between atoms: _235  and  _238
REMARK   99  A    between atoms: _238  and  _239
REMARK  100  A    between atoms: _244  and  _246
REMARK  101  A    between atoms: _246  and  _247
REMARK  102  A    between atoms: _246  and  _249
REMARK  103  A    between atoms: _249  and  _250
REMARK  104  A    between atoms: _253  and  _255
REMARK  105  A    between atoms: _255  and  _256
REMARK  106  A    between atoms: _255  and  _258
REMARK  107  A    between atoms: _258  and  _259
REMARK  108  A    between atoms: _262  and  _264
REMARK  109  A    between atoms: _264  and  _265
REMARK  110  A    between atoms: _267  and  _269
REMARK  111  A    between atoms: _269  and  _270
REMARK  112  A    between atoms: _269  and  _272
REMARK  113  A    between atoms: _272  and  _273
REMARK  114  A    between atoms: _273  and  _274
REMARK  115  A    between atoms: _274  and  _275
REMARK  116  A    between atoms: _284  and  _286
REMARK  117  A    between atoms: _286  and  _287
REMARK  118  A    between atoms: _286  and  _289
REMARK  119  A    between atoms: _289  and  _290
REMARK  120  A    between atoms: _295  and  _297
REMARK  121  A    between atoms: _297  and  _298
REMARK  122  A    between atoms: _297  and  _300
REMARK  123  A    between atoms: _300  and  _301
REMARK  124  A    between atoms: _301  and  _302
REMARK  125  A    between atoms: _302  and  _303
REMARK  126  A    between atoms: _312  and  _314
REMARK  127  A    between atoms: _314  and  _315
REMARK  128  A    between atoms: _314  and  _317
REMARK  129  A    between atoms: _317  and  _318
REMARK  130  A    between atoms: _321  and  _323
REMARK  131  A    between atoms: _323  and  _324
REMARK  132  A    between atoms: _323  and  _326
REMARK  133  A    between atoms: _326  and  _327
REMARK  134  A    between atoms: _330  and  _332
REMARK  135  A    between atoms: _332  and  _333
REMARK  136  A    between atoms: _332  and  _335
REMARK  137  A    between atoms: _335  and  _336
REMARK  138  A    between atoms: _339  and  _341
REMARK  139  A    between atoms: _341  and  _342
REMARK  140  A    between atoms: _341  and  _344
REMARK  141  A    between atoms: _344  and  _345
REMARK  142  A    between atoms: _348  and  _350
REMARK  143  A    between atoms: _350  and  _351
REMARK  144  A    between atoms: _353  and  _355
REMARK  145  A    between atoms: _355  and  _356
REMARK  146  A    between atoms: _359  and  _361
REMARK  147  A    between atoms: _361  and  _362
REMARK  148  A    between atoms: _361  and  _364
REMARK  149  A    between atoms: _364  and  _365
REMARK  150  A    between atoms: _368  and  _370
REMARK  151  A    between atoms: _370  and  _371
REMARK  152  A    between atoms: _370  and  _373
REMARK  153  A    between atoms: _373  and  _374
REMARK  154  A    between atoms: _377  and  _379
REMARK  155  A    between atoms: _379  and  _380
REMARK  156  A    between atoms: _379  and  _382
REMARK  157  A    between atoms: _382  and  _383
REMARK  158  A    between atoms: _386  and  _388
REMARK  159  A    between atoms: _388  and  _389
REMARK  160  A    between atoms: _388  and  _391
REMARK  161  A    between atoms: _394  and  _396
REMARK  162  A    between atoms: _396  and  _397
REMARK  163  A    between atoms: _396  and  _399
REMARK  164  A    between atoms: _399  and  _400
REMARK  165  A    between atoms: _403  and  _405
REMARK  166  A    between atoms: _405  and  _406
REMARK  167  A    between atoms: _405  and  _408
REMARK  168  A    between atoms: _408  and  _409
REMARK  169  A    between atoms: _409  and  _410
REMARK  170  A    between atoms: _410  and  _411
REMARK  171  A    between atoms: _411  and  _412
REMARK  172  A    between atoms: _416  and  _418
REMARK  173  A    between atoms: _418  and  _419
REMARK  174  A    between atoms: _418  and  _421
REMARK  175  A    between atoms: _421  and  _422
REMARK  176  A    between atoms: _425  and  _427
REMARK  177  A    between atoms: _427  and  _428
REMARK  178  A    between atoms: _427  and  _430
REMARK  179  A    between atoms: _430  and  _431
REMARK  180  A    between atoms: _434  and  _436
REMARK  181  A    between atoms: _436  and  _437
REMARK  182  A    between atoms: _439  and  _441
REMARK  183  A    between atoms: _441  and  _442
REMARK  184  A    between atoms: _441  and  _444
REMARK  185  A    between atoms: _444  and  _445
REMARK  186  A    between atoms: _448  and  _450
REMARK  187  A    between atoms: _450  and  _451
REMARK  188  A    between atoms: _453  and  _455
REMARK  189  A    between atoms: _455  and  _456
REMARK  190  A    between atoms: _458  and  _460
REMARK  191  A    between atoms: _460  and  _461
REMARK  192  A    between atoms: _460  and  _463
REMARK  193  A    between atoms: _463  and  _464
REMARK  194  A    between atoms: _467  and  _469
REMARK  195  A    between atoms: _469  and  _470
REMARK  196  A    between atoms: _469  and  _472
REMARK  197  A    between atoms: _475  and  _477
REMARK  198  A    between atoms: _477  and  _478
REMARK  199  A    between atoms: _477  and  _480
REMARK  200  A    between atoms: _480  and  _481
REMARK  201  A    between atoms: _485  and  _486
REMARK  202  A    between atoms: _491  and  _493
REMARK  203  A    between atoms: _493  and  _494
REMARK  204  A    between atoms: _493  and  _496
REMARK  205  A    between atoms: _496  and  _497
REMARK  206  A    between atoms: _501  and  _502
REMARK  207  A    between atoms: _507  and  _509
REMARK  208  A    between atoms: _509  and  _510
REMARK  209  A    between atoms: _509  and  _512
REMARK  210  A    between atoms: _515  and  _517
REMARK  211  A    between atoms: _517  and  _518
REMARK  212  A    between atoms: _517  and  _520
REMARK  213  A    between atoms: _520  and  _521
REMARK  214  A    between atoms: _526  and  _528
REMARK  215  A    between atoms: _528  and  _529
REMARK  216  A    between atoms: _528  and  _531
REMARK  217  A    between atoms: _531  and  _532
REMARK  218  A    between atoms: _535  and  _537
REMARK  219  A    between atoms: _537  and  _538
REMARK  220  A    between atoms: _537  and  _540
REMARK  221  A    between atoms: _540  and  _541
REMARK  222  A    between atoms: _544  and  _546
REMARK  223  A    between atoms: _546  and  _547
REMARK  224  A    between atoms: _549  and  _551
REMARK  225  A    between atoms: _551  and  _552
REMARK  226  A    between atoms: _551  and  _554
REMARK  227  A    between atoms: _554  and  _555
REMARK  228  A    between atoms: _555  and  _556
REMARK  229  A    between atoms: _556  and  _557
REMARK                            x       y       z     vdW  Elec       q    Type
REMARK                         _______ _______ _______ _____ _____    ______ ____
ROOT
ATOM      1  O   HOH     1      21.142  -4.764 -19.714  0.00  0.00    +0.000 OA
ENDROOT
TORSDOF 0
REMARK  Name = ../refined-set-2016/4qgi/4qgi_pocket.pdb
REMARK  229 active torsions:
REMARK  status: ('A' for Active; 'I' for Inactive)
REMARK    1  A    between atoms: _1  and  _3
REMARK    2  A    between atoms: _3  and  _4
REMARK    3  A    between atoms: _3  and  _6
REMARK    4  A    between atoms: _6  and  _7
REMARK    5  A    between atoms: _7  and  _8
REMARK    6  A    between atoms: _8  and  _9
REMARK    7  A    between atoms: _18  and  _20
REMARK    8  A    between atoms: _20  and  _21
REMARK    9  A    between atoms: _20  and  _23
REMARK   10  A    between atoms: _23  and  _24
REMARK   11  A    between atoms: _27  and  _29
REMARK   12  A    between atoms: _29  and  _30
REMARK   13  A    between atoms: _29  and  _32
REMARK   14  A    between atoms: _32  and  _33
REMARK   15  A    between atoms: _36  and  _38
REMARK   16  A    between atoms: _38  and  _39
REMARK   17  A    between atoms: _38  and  _41
REMARK   18  A    between atoms: _41  and  _42
REMARK   19  A    between atoms: _45  and  _47
REMARK   20  A    between atoms: _47  and  _48
REMARK   21  A    between atoms: _47  and  _50
REMARK   22  A    between atoms: _50  and  _51
REMARK   23  A    between atoms: _54  and  _56
REMARK   24  A    between atoms: _56  and  _57
REMARK   25  A    between atoms: _59  and  _61
REMARK   26  A    between atoms: _61  and  _62
REMARK   27  A    between atoms: _65  and  _67
REMARK   28  A    between atoms: _67  and  _68
REMARK   29  A    between atoms: _67  and  _70
REMARK   30  A    between atoms: _70  and  _71
REMARK   31  A    between atoms: _74  and  _76
REMARK   32  A    between atoms: _76  and  _77
REMARK   33  A    between atoms: _76  and  _79
REMARK   34  A    between atoms: _79  and  _80
REMARK   35  A    between atoms: _83  and  _85
REMARK   36  A    between atoms: _85  and  _86
REMARK   37  A    between atoms: _85  and  _88
REMARK   38  A    between atoms: _88  and  _89
REMARK   39  A    between atoms: _92  and  _94
REMARK   40  A    between atoms: _94  and  _95
REMARK   41  A    between atoms: _94  and  _97
REMARK   42  A    between atoms: _100  and  _102
REMARK   43  A    between atoms: _102  and  _103
REMARK   44  A    between atoms: _102  and  _105
REMARK   45  A    between atoms: _105  and  _106
REMARK   46  A    between atoms: _106  and  _107
REMARK   47  A    between atoms: _107  and  _108
REMARK   48  A    between atoms: _108  and  _109
REMARK   49  A    between atoms: _113  and  _115
REMARK   50  A    between atoms: _115  and  _116
REMARK   51  A    between atoms: _115  and  _118
REMARK   52  A    between atoms: _118  and  _119
REMARK   53  A    between atoms: _119  and  _120
REMARK   54  A    between atoms: _122  and  _124
REMARK   55  A    between atoms: _124  and  _125
REMARK   56  A    between atoms: _124  and  _127
REMARK   57  A    between atoms: _127  and  _128
REMARK   58  A    between atoms: _131  and  _133
REMARK   59  A    between atoms: _133  and  _134
REMARK   60  A    between atoms: _133  and  _136
REMARK   61  A    between atoms: _136  and  _137
REMARK   62  A    between atoms: _140  and  _142
REMARK   63  A    between atoms: _142  and  _143
REMARK   64  A    between atoms: _145  and  _147
REMARK   65  A    between atoms: _147  and  _148
REMARK   66  A    between atoms: _147  and  _150
REMARK   67  A    between atoms: _150  and  _151
REMARK   68  A    between atoms: _154  and  _156
REMARK   69  A    between atoms: _156  and  _157
REMARK   70  A    between atoms: _159  and  _161
REMARK   71  A    between atoms: _161  and  _162
REMARK   72  A    between atoms: _164  and  _166
REMARK   73  A    between atoms: _166  and  _167
REMARK   74  A    between atoms: _166  and  _169
REMARK   75  A    between atoms: _169  and  _170
REMARK   76  A    between atoms: _176  and  _178
REMARK   77  A    between atoms: _178  and  _179
REMARK   78  A    between atoms: _178  and  _181
REMARK   79  A    between atoms: _181  and  _182
REMARK   80  A    between atoms: _185  and  _187
REMARK   81  A    between atoms: _187  and  _188
REMARK   82  A    between atoms: _187  and  _190
REMARK   83  A    between atoms: _193  and  _195
REMARK   84  A    between atoms: _195  and  _196
REMARK   85  A    between atoms: _195  and  _198
REMARK   86  A    between atoms: _198  and  _199
REMARK   87  A    between atoms: _203  and  _204
REMARK   88  A    between atoms: _209  and  _211
REMARK   89  A    between atoms: _211  and  _212
REMARK   90  A    between atoms: _211  and  _214
REMARK   91  A    between atoms: _214  and  _215
REMARK   92  A    between atoms: _219  and  _220
REMARK   93  A    between atoms: _225  and  _227
REMARK   94  A    between atoms: _227  and  _228
REMARK   95  A    between atoms: _227  and  _230
REMARK   96  A    between atoms: _233  and  _235
REMARK   97  A    between atoms: _235  and  _236
REMARK   98  A    between atoms: _235  and  _238
REMARK   99  A    between atoms: _238  and  _239
REMARK  100  A    between atoms: _244  and  _246
REMARK  101  A    between atoms: _246  and  _247
REMARK  102  A    between atoms: _246  and  _249
REMARK  103  A    between atoms: _249  and  _250
REMARK  104  A    between atoms: _253  and  _255
REMARK  105  A    between atoms: _255  and  _256
REMARK  106  A    between atoms: _255  and  _258
REMARK  107  A    between atoms: _258  and  _259
REMARK  108  A    between atoms: _262  and  _264
REMARK  109  A    between atoms: _264  and  _265
REMARK  110  A    between atoms: _267  and  _269
REMARK  111  A    between atoms: _269  and  _270
REMARK  112  A    between atoms: _269  and  _272
REMARK  113  A    between atoms: _272  and  _273
REMARK  114  A    between atoms: _273  and  _274
REMARK  115  A    between atoms: _274  and  _275
REMARK  116  A    between atoms: _284  and  _286
REMARK  117  A    between atoms: _286  and  _287
REMARK  118  A    between atoms: _286  and  _289
REMARK  119  A    between atoms: _289  and  _290
REMARK  120  A    between atoms: _295  and  _297
REMARK  121  A    between atoms: _297  and  _298
REMARK  122  A    between atoms: _297  and  _300
REMARK  123  A    between atoms: _300  and  _301
REMARK  124  A    between atoms: _301  and  _302
REMARK  125  A    between atoms: _302  and  _303
REMARK  126  A    between atoms: _312  and  _314
REMARK  127  A    between atoms: _314  and  _315
REMARK  128  A    between atoms: _314  and  _317
REMARK  129  A    between atoms: _317  and  _318
REMARK  130  A    between atoms: _321  and  _323
REMARK  131  A    between atoms: _323  and  _324
REMARK  132  A    between atoms: _323  and  _326
REMARK  133  A    between atoms: _326  and  _327
REMARK  134  A    between atoms: _330  and  _332
REMARK  135  A    between atoms: _332  and  _333
REMARK  136  A    between atoms: _332  and  _335
REMARK  137  A    between atoms: _335  and  _336
REMARK  138  A    between atoms: _339  and  _341
REMARK  139  A    between atoms: _341  and  _342
REMARK  140  A    between atoms: _341  and  _344
REMARK  141  A    between atoms: _344  and  _345
REMARK  142  A    between atoms: _348  and  _350
REMARK  143  A    between atoms: _350  and  _351
REMARK  144  A    between atoms: _353  and  _355
REMARK  145  A    between atoms: _355  and  _356
REMARK  146  A    between atoms: _359  and  _361
REMARK  147  A    between atoms: _361  and  _362
REMARK  148  A    between atoms: _361  and  _364
REMARK  149  A    between atoms: _364  and  _365
REMARK  150  A    between atoms: _368  and  _370
REMARK  151  A    between atoms: _370  and  _371
REMARK  152  A    between atoms: _370  and  _373
REMARK  153  A    between atoms: _373  and  _374
REMARK  154  A    between atoms: _377  and  _379
REMARK  155  A    between atoms: _379  and  _380
REMARK  156  A    between atoms: _379  and  _382
REMARK  157  A    between atoms: _382  and  _383
REMARK  158  A    between atoms: _386  and  _388
REMARK  159  A    between atoms: _388  and  _389
REMARK  160  A    between atoms: _388  and  _391
REMARK  161  A    between atoms: _394  and  _396
REMARK  162  A    between atoms: _396  and  _397
REMARK  163  A    between atoms: _396  and  _399
REMARK  164  A    between atoms: _399  and  _400
REMARK  165  A    between atoms: _403  and  _405
REMARK  166  A    between atoms: _405  and  _406
REMARK  167  A    between atoms: _405  and  _408
REMARK  168  A    between atoms: _408  and  _409
REMARK  169  A    between atoms: _409  and  _410
REMARK  170  A    between atoms: _410  and  _411
REMARK  171  A    between atoms: _411  and  _412
REMARK  172  A    between atoms: _416  and  _418
REMARK  173  A    between atoms: _418  and  _419
REMARK  174  A    between atoms: _418  and  _421
REMARK  175  A    between atoms: _421  and  _422
REMARK  176  A    between atoms: _425  and  _427
REMARK  177  A    between atoms: _427  and  _428
REMARK  178  A    between atoms: _427  and  _430
REMARK  179  A    between atoms: _430  and  _431
REMARK  180  A    between atoms: _434  and  _436
REMARK  181  A    between atoms: _436  and  _437
REMARK  182  A    between atoms: _439  and  _441
REMARK  183  A    between atoms: _441  and  _442
REMARK  184  A    between atoms: _441  and  _444
REMARK  185  A    between atoms: _444  and  _445
REMARK  186  A    between atoms: _448  and  _450
REMARK  187  A    between atoms: _450  and  _451
REMARK  188  A    between atoms: _453  and  _455
REMARK  189  A    between atoms: _455  and  _456
REMARK  190  A    between atoms: _458  and  _460
REMARK  191  A    between atoms: _460  and  _461
REMARK  192  A    between atoms: _460  and  _463
REMARK  193  A    between atoms: _463  and  _464
REMARK  194  A    between atoms: _467  and  _469
REMARK  195  A    between atoms: _469  and  _470
REMARK  196  A    between atoms: _469  and  _472
REMARK  197  A    between atoms: _475  and  _477
REMARK  198  A    between atoms: _477  and  _478
REMARK  199  A    between atoms: _477  and  _480
REMARK  200  A    between atoms: _480  and  _481
REMARK  201  A    between atoms: _485  and  _486
REMARK  202  A    between atoms: _491  and  _493
REMARK  203  A    between atoms: _493  and  _494
REMARK  204  A    between atoms: _493  and  _496
REMARK  205  A    between atoms: _496  and  _497
REMARK  206  A    between atoms: _501  and  _502
REMARK  207  A    between atoms: _507  and  _509
REMARK  208  A    between atoms: _509  and  _510
REMARK  209  A    between atoms: _509  and  _512
REMARK  210  A    between atoms: _515  and  _517
REMARK  211  A    between atoms: _517  and  _518
REMARK  212  A    between atoms: _517  and  _520
REMARK  213  A    between atoms: _520  and  _521
REMARK  214  A    between atoms: _526  and  _528
REMARK  215  A    between atoms: _528  and  _529
REMARK  216  A    between atoms: _528  and  _531
REMARK  217  A    between atoms: _531  and  _532
REMARK  218  A    between atoms: _535  and  _537
REMARK  219  A    between atoms: _537  and  _538
REMARK  220  A    between atoms: _537  and  _540
REMARK  221  A    between atoms: _540  and  _541
REMARK  222  A    between atoms: _544  and  _546
REMARK  223  A    between atoms: _546  and  _547
REMARK  224  A    between atoms: _549  and  _551
REMARK  225  A    between atoms: _551  and  _552
REMARK  226  A    between atoms: _551  and  _554
REMARK  227  A    between atoms: _554  and  _555
REMARK  228  A    between atoms: _555  and  _556
REMARK  229  A    between atoms: _556  and  _557
REMARK                            x       y       z     vdW  Elec       q    Type
REMARK                         _______ _______ _______ _____ _____    ______ ____
ROOT
ATOM      1  O   HOH     1       5.972  -9.567  -5.191  0.00  0.00    +0.000 OA
ENDROOT
TORSDOF 0
REMARK  Name = ../refined-set-2016/4qgi/4qgi_pocket.pdb
REMARK  229 active torsions:
REMARK  status: ('A' for Active; 'I' for Inactive)
REMARK    1  A    between atoms: _1  and  _3
REMARK    2  A    between atoms: _3  and  _4
REMARK    3  A    between atoms: _3  and  _6
REMARK    4  A    between atoms: _6  and  _7
REMARK    5  A    between atoms: _7  and  _8
REMARK    6  A    between atoms: _8  and  _9
REMARK    7  A    between atoms: _18  and  _20
REMARK    8  A    between atoms: _20  and  _21
REMARK    9  A    between atoms: _20  and  _23
REMARK   10  A    between atoms: _23  and  _24
REMARK   11  A    between atoms: _27  and  _29
REMARK   12  A    between atoms: _29  and  _30
REMARK   13  A    between atoms: _29  and  _32
REMARK   14  A    between atoms: _32  and  _33
REMARK   15  A    between atoms: _36  and  _38
REMARK   16  A    between atoms: _38  and  _39
REMARK   17  A    between atoms: _38  and  _41
REMARK   18  A    between atoms: _41  and  _42
REMARK   19  A    between atoms: _45  and  _47
REMARK   20  A    between atoms: _47  and  _48
REMARK   21  A    between atoms: _47  and  _50
REMARK   22  A    between atoms: _50  and  _51
REMARK   23  A    between atoms: _54  and  _56
REMARK   24  A    between atoms: _56  and  _57
REMARK   25  A    between atoms: _59  and  _61
REMARK   26  A    between atoms: _61  and  _62
REMARK   27  A    between atoms: _65  and  _67
REMARK   28  A    between atoms: _67  and  _68
REMARK   29  A    between atoms: _67  and  _70
REMARK   30  A    between atoms: _70  and  _71
REMARK   31  A    between atoms: _74  and  _76
REMARK   32  A    between atoms: _76  and  _77
REMARK   33  A    between atoms: _76  and  _79
REMARK   34  A    between atoms: _79  and  _80
REMARK   35  A    between atoms: _83  and  _85
REMARK   36  A    between atoms: _85  and  _86
REMARK   37  A    between atoms: _85  and  _88
REMARK   38  A    between atoms: _88  and  _89
REMARK   39  A    between atoms: _92  and  _94
REMARK   40  A    between atoms: _94  and  _95
REMARK   41  A    between atoms: _94  and  _97
REMARK   42  A    between atoms: _100  and  _102
REMARK   43  A    between atoms: _102  and  _103
REMARK   44  A    between atoms: _102  and  _105
REMARK   45  A    between atoms: _105  and  _106
REMARK   46  A    between atoms: _106  and  _107
REMARK   47  A    between atoms: _107  and  _108
REMARK   48  A    between atoms: _108  and  _109
REMARK   49  A    between atoms: _113  and  _115
REMARK   50  A    between atoms: _115  and  _116
REMARK   51  A    between atoms: _115  and  _118
REMARK   52  A    between atoms: _118  and  _119
REMARK   53  A    between atoms: _119  and  _120
REMARK   54  A    between atoms: _122  and  _124
REMARK   55  A    between atoms: _124  and  _125
REMARK   56  A    between atoms: _124  and  _127
REMARK   57  A    between atoms: _127  and  _128
REMARK   58  A    between atoms: _131  and  _133
REMARK   59  A    between atoms: _133  and  _134
REMARK   60  A    between atoms: _133  and  _136
REMARK   61  A    between atoms: _136  and  _137
REMARK   62  A    between atoms: _140  and  _142
REMARK   63  A    between atoms: _142  and  _143
REMARK   64  A    between atoms: _145  and  _147
REMARK   65  A    between atoms: _147  and  _148
REMARK   66  A    between atoms: _147  and  _150
REMARK   67  A    between atoms: _150  and  _151
REMARK   68  A    between atoms: _154  and  _156
REMARK   69  A    between atoms: _156  and  _157
REMARK   70  A    between atoms: _159  and  _161
REMARK   71  A    between atoms: _161  and  _162
REMARK   72  A    between atoms: _164  and  _166
REMARK   73  A    between atoms: _166  and  _167
REMARK   74  A    between atoms: _166  and  _169
REMARK   75  A    between atoms: _169  and  _170
REMARK   76  A    between atoms: _176  and  _178
REMARK   77  A    between atoms: _178  and  _179
REMARK   78  A    between atoms: _178  and  _181
REMARK   79  A    between atoms: _181  and  _182
REMARK   80  A    between atoms: _185  and  _187
REMARK   81  A    between atoms: _187  and  _188
REMARK   82  A    between atoms: _187  and  _190
REMARK   83  A    between atoms: _193  and  _195
REMARK   84  A    between atoms: _195  and  _196
REMARK   85  A    between atoms: _195  and  _198
REMARK   86  A    between atoms: _198  and  _199
REMARK   87  A    between atoms: _203  and  _204
REMARK   88  A    between atoms: _209  and  _211
REMARK   89  A    between atoms: _211  and  _212
REMARK   90  A    between atoms: _211  and  _214
REMARK   91  A    between atoms: _214  and  _215
REMARK   92  A    between atoms: _219  and  _220
REMARK   93  A    between atoms: _225  and  _227
REMARK   94  A    between atoms: _227  and  _228
REMARK   95  A    between atoms: _227  and  _230
REMARK   96  A    between atoms: _233  and  _235
REMARK   97  A    between atoms: _235  and  _236
REMARK   98  A    between atoms: _235  and  _238
REMARK   99  A    between atoms: _238  and  _239
REMARK  100  A    between atoms: _244  and  _246
REMARK  101  A    between atoms: _246  and  _247
REMARK  102  A    between atoms: _246  and  _249
REMARK  103  A    between atoms: _249  and  _250
REMARK  104  A    between atoms: _253  and  _255
REMARK  105  A    between atoms: _255  and  _256
REMARK  106  A    between atoms: _255  and  _258
REMARK  107  A    between atoms: _258  and  _259
REMARK  108  A    between atoms: _262  and  _264
REMARK  109  A    between atoms: _264  and  _265
REMARK  110  A    between atoms: _267  and  _269
REMARK  111  A    between atoms: _269  and  _270
REMARK  112  A    between atoms: _269  and  _272
REMARK  113  A    between atoms: _272  and  _273
REMARK  114  A    between atoms: _273  and  _274
REMARK  115  A    between atoms: _274  and  _275
REMARK  116  A    between atoms: _284  and  _286
REMARK  117  A    between atoms: _286  and  _287
REMARK  118  A    between atoms: _286  and  _289
REMARK  119  A    between atoms: _289  and  _290
REMARK  120  A    between atoms: _295  and  _297
REMARK  121  A    between atoms: _297  and  _298
REMARK  122  A    between atoms: _297  and  _300
REMARK  123  A    between atoms: _300  and  _301
REMARK  124  A    between atoms: _301  and  _302
REMARK  125  A    between atoms: _302  and  _303
REMARK  126  A    between atoms: _312  and  _314
REMARK  127  A    between atoms: _314  and  _315
REMARK  128  A    between atoms: _314  and  _317
REMARK  129  A    between atoms: _317  and  _318
REMARK  130  A    between atoms: _321  and  _323
REMARK  131  A    between atoms: _323  and  _324
REMARK  132  A    between atoms: _323  and  _326
REMARK  133  A    between atoms: _326  and  _327
REMARK  134  A    between atoms: _330  and  _332
REMARK  135  A    between atoms: _332  and  _333
REMARK  136  A    between atoms: _332  and  _335
REMARK  137  A    between atoms: _335  and  _336
REMARK  138  A    between atoms: _339  and  _341
REMARK  139  A    between atoms: _341  and  _342
REMARK  140  A    between atoms: _341  and  _344
REMARK  141  A    between atoms: _344  and  _345
REMARK  142  A    between atoms: _348  and  _350
REMARK  143  A    between atoms: _350  and  _351
REMARK  144  A    between atoms: _353  and  _355
REMARK  145  A    between atoms: _355  and  _356
REMARK  146  A    between atoms: _359  and  _361
REMARK  147  A    between atoms: _361  and  _362
REMARK  148  A    between atoms: _361  and  _364
REMARK  149  A    between atoms: _364  and  _365
REMARK  150  A    between atoms: _368  and  _370
REMARK  151  A    between atoms: _370  and  _371
REMARK  152  A    between atoms: _370  and  _373
REMARK  153  A    between atoms: _373  and  _374
REMARK  154  A    between atoms: _377  and  _379
REMARK  155  A    between atoms: _379  and  _380
REMARK  156  A    between atoms: _379  and  _382
REMARK  157  A    between atoms: _382  and  _383
REMARK  158  A    between atoms: _386  and  _388
REMARK  159  A    between atoms: _388  and  _389
REMARK  160  A    between atoms: _388  and  _391
REMARK  161  A    between atoms: _394  and  _396
REMARK  162  A    between atoms: _396  and  _397
REMARK  163  A    between atoms: _396  and  _399
REMARK  164  A    between atoms: _399  and  _400
REMARK  165  A    between atoms: _403  and  _405
REMARK  166  A    between atoms: _405  and  _406
REMARK  167  A    between atoms: _405  and  _408
REMARK  168  A    between atoms: _408  and  _409
REMARK  169  A    between atoms: _409  and  _410
REMARK  170  A    between atoms: _410  and  _411
REMARK  171  A    between atoms: _411  and  _412
REMARK  172  A    between atoms: _416  and  _418
REMARK  173  A    between atoms: _418  and  _419
REMARK  174  A    between atoms: _418  and  _421
REMARK  175  A    between atoms: _421  and  _422
REMARK  176  A    between atoms: _425  and  _427
REMARK  177  A    between atoms: _427  and  _428
REMARK  178  A    between atoms: _427  and  _430
REMARK  179  A    between atoms: _430  and  _431
REMARK  180  A    between atoms: _434  and  _436
REMARK  181  A    between atoms: _436  and  _437
REMARK  182  A    between atoms: _439  and  _441
REMARK  183  A    between atoms: _441  and  _442
REMARK  184  A    between atoms: _441  and  _444
REMARK  185  A    between atoms: _444  and  _445
REMARK  186  A    between atoms: _448  and  _450
REMARK  187  A    between atoms: _450  and  _451
REMARK  188  A    between atoms: _453  and  _455
REMARK  189  A    between atoms: _455  and  _456
REMARK  190  A    between atoms: _458  and  _460
REMARK  191  A    between atoms: _460  and  _461
REMARK  192  A    between atoms: _460  and  _463
REMARK  193  A    between atoms: _463  and  _464
REMARK  194  A    between atoms: _467  and  _469
REMARK  195  A    between atoms: _469  and  _470
REMARK  196  A    between atoms: _469  and  _472
REMARK  197  A    between atoms: _475  and  _477
REMARK  198  A    between atoms: _477  and  _478
REMARK  199  A    between atoms: _477  and  _480
REMARK  200  A    between atoms: _480  and  _481
REMARK  201  A    between atoms: _485  and  _486
REMARK  202  A    between atoms: _491  and  _493
REMARK  203  A    between atoms: _493  and  _494
REMARK  204  A    between atoms: _493  and  _496
REMARK  205  A    between atoms: _496  and  _497
REMARK  206  A    between atoms: _501  and  _502
REMARK  207  A    between atoms: _507  and  _509
REMARK  208  A    between atoms: _509  and  _510
REMARK  209  A    between atoms: _509  and  _512
REMARK  210  A    between atoms: _515  and  _517
REMARK  211  A    between atoms: _517  and  _518
REMARK  212  A    between atoms: _517  and  _520
REMARK  213  A    between atoms: _520  and  _521
REMARK  214  A    between atoms: _526  and  _528
REMARK  215  A    between atoms: _528  and  _529
REMARK  216  A    between atoms: _528  and  _531
REMARK  217  A    between atoms: _531  and  _532
REMARK  218  A    between atoms: _535  and  _537
REMARK  219  A    between atoms: _537  and  _538
REMARK  220  A    between atoms: _537  and  _540
REMARK  221  A    between atoms: _540  and  _541
REMARK  222  A    between atoms: _544  and  _546
REMARK  223  A    between atoms: _546  and  _547
REMARK  224  A    between atoms: _549  and  _551
REMARK  225  A    between atoms: _551  and  _552
REMARK  226  A    between atoms: _551  and  _554
REMARK  227  A    between atoms: _554  and  _555
REMARK  228  A    between atoms: _555  and  _556
REMARK  229  A    between atoms: _556  and  _557
REMARK                            x       y       z     vdW  Elec       q    Type
REMARK                         _______ _______ _______ _____ _____    ______ ____
ROOT
ATOM      1  O   HOH     1       5.520  -6.064  -7.567  0.00  0.00    +0.000 OA
ENDROOT
TORSDOF 0
REMARK  Name = ../refined-set-2016/4qgi/4qgi_pocket.pdb
REMARK  229 active torsions:
REMARK  status: ('A' for Active; 'I' for Inactive)
REMARK    1  A    between atoms: _1  and  _3
REMARK    2  A    between atoms: _3  and  _4
REMARK    3  A    between atoms: _3  and  _6
REMARK    4  A    between atoms: _6  and  _7
REMARK    5  A    between atoms: _7  and  _8
REMARK    6  A    between atoms: _8  and  _9
REMARK    7  A    between atoms: _18  and  _20
REMARK    8  A    between atoms: _20  and  _21
REMARK    9  A    between atoms: _20  and  _23
REMARK   10  A    between atoms: _23  and  _24
REMARK   11  A    between atoms: _27  and  _29
REMARK   12  A    between atoms: _29  and  _30
REMARK   13  A    between atoms: _29  and  _32
REMARK   14  A    between atoms: _32  and  _33
REMARK   15  A    between atoms: _36  and  _38
REMARK   16  A    between atoms: _38  and  _39
REMARK   17  A    between atoms: _38  and  _41
REMARK   18  A    between atoms: _41  and  _42
REMARK   19  A    between atoms: _45  and  _47
REMARK   20  A    between atoms: _47  and  _48
REMARK   21  A    between atoms: _47  and  _50
REMARK   22  A    between atoms: _50  and  _51
REMARK   23  A    between atoms: _54  and  _56
REMARK   24  A    between atoms: _56  and  _57
REMARK   25  A    between atoms: _59  and  _61
REMARK   26  A    between atoms: _61  and  _62
REMARK   27  A    between atoms: _65  and  _67
REMARK   28  A    between atoms: _67  and  _68
REMARK   29  A    between atoms: _67  and  _70
REMARK   30  A    between atoms: _70  and  _71
REMARK   31  A    between atoms: _74  and  _76
REMARK   32  A    between atoms: _76  and  _77
REMARK   33  A    between atoms: _76  and  _79
REMARK   34  A    between atoms: _79  and  _80
REMARK   35  A    between atoms: _83  and  _85
REMARK   36  A    between atoms: _85  and  _86
REMARK   37  A    between atoms: _85  and  _88
REMARK   38  A    between atoms: _88  and  _89
REMARK   39  A    between atoms: _92  and  _94
REMARK   40  A    between atoms: _94  and  _95
REMARK   41  A    between atoms: _94  and  _97
REMARK   42  A    between atoms: _100  and  _102
REMARK   43  A    between atoms: _102  and  _103
REMARK   44  A    between atoms: _102  and  _105
REMARK   45  A    between atoms: _105  and  _106
REMARK   46  A    between atoms: _106  and  _107
REMARK   47  A    between atoms: _107  and  _108
REMARK   48  A    between atoms: _108  and  _109
REMARK   49  A    between atoms: _113  and  _115
REMARK   50  A    between atoms: _115  and  _116
REMARK   51  A    between atoms: _115  and  _118
REMARK   52  A    between atoms: _118  and  _119
REMARK   53  A    between atoms: _119  and  _120
REMARK   54  A    between atoms: _122  and  _124
REMARK   55  A    between atoms: _124  and  _125
REMARK   56  A    between atoms: _124  and  _127
REMARK   57  A    between atoms: _127  and  _128
REMARK   58  A    between atoms: _131  and  _133
REMARK   59  A    between atoms: _133  and  _134
REMARK   60  A    between atoms: _133  and  _136
REMARK   61  A    between atoms: _136  and  _137
REMARK   62  A    between atoms: _140  and  _142
REMARK   63  A    between atoms: _142  and  _143
REMARK   64  A    between atoms: _145  and  _147
REMARK   65  A    between atoms: _147  and  _148
REMARK   66  A    between atoms: _147  and  _150
REMARK   67  A    between atoms: _150  and  _151
REMARK   68  A    between atoms: _154  and  _156
REMARK   69  A    between atoms: _156  and  _157
REMARK   70  A    between atoms: _159  and  _161
REMARK   71  A    between atoms: _161  and  _162
REMARK   72  A    between atoms: _164  and  _166
REMARK   73  A    between atoms: _166  and  _167
REMARK   74  A    between atoms: _166  and  _169
REMARK   75  A    between atoms: _169  and  _170
REMARK   76  A    between atoms: _176  and  _178
REMARK   77  A    between atoms: _178  and  _179
REMARK   78  A    between atoms: _178  and  _181
REMARK   79  A    between atoms: _181  and  _182
REMARK   80  A    between atoms: _185  and  _187
REMARK   81  A    between atoms: _187  and  _188
REMARK   82  A    between atoms: _187  and  _190
REMARK   83  A    between atoms: _193  and  _195
REMARK   84  A    between atoms: _195  and  _196
REMARK   85  A    between atoms: _195  and  _198
REMARK   86  A    between atoms: _198  and  _199
REMARK   87  A    between atoms: _203  and  _204
REMARK   88  A    between atoms: _209  and  _211
REMARK   89  A    between atoms: _211  and  _212
REMARK   90  A    between atoms: _211  and  _214
REMARK   91  A    between atoms: _214  and  _215
REMARK   92  A    between atoms: _219  and  _220
REMARK   93  A    between atoms: _225  and  _227
REMARK   94  A    between atoms: _227  and  _228
REMARK   95  A    between atoms: _227  and  _230
REMARK   96  A    between atoms: _233  and  _235
REMARK   97  A    between atoms: _235  and  _236
REMARK   98  A    between atoms: _235  and  _238
REMARK   99  A    between atoms: _238  and  _239
REMARK  100  A    between atoms: _244  and  _246
REMARK  101  A    between atoms: _246  and  _247
REMARK  102  A    between atoms: _246  and  _249
REMARK  103  A    between atoms: _249  and  _250
REMARK  104  A    between atoms: _253  and  _255
REMARK  105  A    between atoms: _255  and  _256
REMARK  106  A    between atoms: _255  and  _258
REMARK  107  A    between atoms: _258  and  _259
REMARK  108  A    between atoms: _262  and  _264
REMARK  109  A    between atoms: _264  and  _265
REMARK  110  A    between atoms: _267  and  _269
REMARK  111  A    between atoms: _269  and  _270
REMARK  112  A    between atoms: _269  and  _272
REMARK  113  A    between atoms: _272  and  _273
REMARK  114  A    between atoms: _273  and  _274
REMARK  115  A    between atoms: _274  and  _275
REMARK  116  A    between atoms: _284  and  _286
REMARK  117  A    between atoms: _286  and  _287
REMARK  118  A    between atoms: _286  and  _289
REMARK  119  A    between atoms: _289  and  _290
REMARK  120  A    between atoms: _295  and  _297
REMARK  121  A    between atoms: _297  and  _298
REMARK  122  A    between atoms: _297  and  _300
REMARK  123  A    between atoms: _300  and  _301
REMARK  124  A    between atoms: _301  and  _302
REMARK  125  A    between atoms: _302  and  _303
REMARK  126  A    between atoms: _312  and  _314
REMARK  127  A    between atoms: _314  and  _315
REMARK  128  A    between atoms: _314  and  _317
REMARK  129  A    between atoms: _317  and  _318
REMARK  130  A    between atoms: _321  and  _323
REMARK  131  A    between atoms: _323  and  _324
REMARK  132  A    between atoms: _323  and  _326
REMARK  133  A    between atoms: _326  and  _327
REMARK  134  A    between atoms: _330  and  _332
REMARK  135  A    between atoms: _332  and  _333
REMARK  136  A    between atoms: _332  and  _335
REMARK  137  A    between atoms: _335  and  _336
REMARK  138  A    between atoms: _339  and  _341
REMARK  139  A    between atoms: _341  and  _342
REMARK  140  A    between atoms: _341  and  _344
REMARK  141  A    between atoms: _344  and  _345
REMARK  142  A    between atoms: _348  and  _350
REMARK  143  A    between atoms: _350  and  _351
REMARK  144  A    between atoms: _353  and  _355
REMARK  145  A    between atoms: _355  and  _356
REMARK  146  A    between atoms: _359  and  _361
REMARK  147  A    between atoms: _361  and  _362
REMARK  148  A    between atoms: _361  and  _364
REMARK  149  A    between atoms: _364  and  _365
REMARK  150  A    between atoms: _368  and  _370
REMARK  151  A    between atoms: _370  and  _371
REMARK  152  A    between atoms: _370  and  _373
REMARK  153  A    between atoms: _373  and  _374
REMARK  154  A    between atoms: _377  and  _379
REMARK  155  A    between atoms: _379  and  _380
REMARK  156  A    between atoms: _379  and  _382
REMARK  157  A    between atoms: _382  and  _383
REMARK  158  A    between atoms: _386  and  _388
REMARK  159  A    between atoms: _388  and  _389
REMARK  160  A    between atoms: _388  and  _391
REMARK  161  A    between atoms: _394  and  _396
REMARK  162  A    between atoms: _396  and  _397
REMARK  163  A    between atoms: _396  and  _399
REMARK  164  A    between atoms: _399  and  _400
REMARK  165  A    between atoms: _403  and  _405
REMARK  166  A    between atoms: _405  and  _406
REMARK  167  A    between atoms: _405  and  _408
REMARK  168  A    between atoms: _408  and  _409
REMARK  169  A    between atoms: _409  and  _410
REMARK  170  A    between atoms: _410  and  _411
REMARK  171  A    between atoms: _411  and  _412
REMARK  172  A    between atoms: _416  and  _418
REMARK  173  A    between atoms: _418  and  _419
REMARK  174  A    between atoms: _418  and  _421
REMARK  175  A    between atoms: _421  and  _422
REMARK  176  A    between atoms: _425  and  _427
REMARK  177  A    between atoms: _427  and  _428
REMARK  178  A    between atoms: _427  and  _430
REMARK  179  A    between atoms: _430  and  _431
REMARK  180  A    between atoms: _434  and  _436
REMARK  181  A    between atoms: _436  and  _437
REMARK  182  A    between atoms: _439  and  _441
REMARK  183  A    between atoms: _441  and  _442
REMARK  184  A    between atoms: _441  and  _444
REMARK  185  A    between atoms: _444  and  _445
REMARK  186  A    between atoms: _448  and  _450
REMARK  187  A    between atoms: _450  and  _451
REMARK  188  A    between atoms: _453  and  _455
REMARK  189  A    between atoms: _455  and  _456
REMARK  190  A    between atoms: _458  and  _460
REMARK  191  A    between atoms: _460  and  _461
REMARK  192  A    between atoms: _460  and  _463
REMARK  193  A    between atoms: _463  and  _464
REMARK  194  A    between atoms: _467  and  _469
REMARK  195  A    between atoms: _469  and  _470
REMARK  196  A    between atoms: _469  and  _472
REMARK  197  A    between atoms: _475  and  _477
REMARK  198  A    between atoms: _477  and  _478
REMARK  199  A    between atoms: _477  and  _480
REMARK  200  A    between atoms: _480  and  _481
REMARK  201  A    between atoms: _485  and  _486
REMARK  202  A    between atoms: _491  and  _493
REMARK  203  A    between atoms: _493  and  _494
REMARK  204  A    between atoms: _493  and  _496
REMARK  205  A    between atoms: _496  and  _497
REMARK  206  A    between atoms: _501  and  _502
REMARK  207  A    between atoms: _507  and  _509
REMARK  208  A    between atoms: _509  and  _510
REMARK  209  A    between atoms: _509  and  _512
REMARK  210  A    between atoms: _515  and  _517
REMARK  211  A    between atoms: _517  and  _518
REMARK  212  A    between atoms: _517  and  _520
REMARK  213  A    between atoms: _520  and  _521
REMARK  214  A    between atoms: _526  and  _528
REMARK  215  A    between atoms: _528  and  _529
REMARK  216  A    between atoms: _528  and  _531
REMARK  217  A    between atoms: _531  and  _532
REMARK  218  A    between atoms: _535  and  _537
REMARK  219  A    between atoms: _537  and  _538
REMARK  220  A    between atoms: _537  and  _540
REMARK  221  A    between atoms: _540  and  _541
REMARK  222  A    between atoms: _544  and  _546
REMARK  223  A    between atoms: _546  and  _547
REMARK  224  A    between atoms: _549  and  _551
REMARK  225  A    between atoms: _551  and  _552
REMARK  226  A    between atoms: _551  and  _554
REMARK  227  A    between atoms: _554  and  _555
REMARK  228  A    between atoms: _555  and  _556
REMARK  229  A    between atoms: _556  and  _557
REMARK                            x       y       z     vdW  Elec       q    Type
REMARK                         _______ _______ _______ _____ _____    ______ ____
ROOT
ATOM      1  O   HOH     1      20.311  -7.292 -19.857  0.00  0.00    +0.000 OA
ENDROOT
TORSDOF 0
REMARK  Name = ../refined-set-2016/4qgi/4qgi_pocket.pdb
REMARK  229 active torsions:
REMARK  status: ('A' for Active; 'I' for Inactive)
REMARK    1  A    between atoms: _1  and  _3
REMARK    2  A    between atoms: _3  and  _4
REMARK    3  A    between atoms: _3  and  _6
REMARK    4  A    between atoms: _6  and  _7
REMARK    5  A    between atoms: _7  and  _8
REMARK    6  A    between atoms: _8  and  _9
REMARK    7  A    between atoms: _18  and  _20
REMARK    8  A    between atoms: _20  and  _21
REMARK    9  A    between atoms: _20  and  _23
REMARK   10  A    between atoms: _23  and  _24
REMARK   11  A    between atoms: _27  and  _29
REMARK   12  A    between atoms: _29  and  _30
REMARK   13  A    between atoms: _29  and  _32
REMARK   14  A    between atoms: _32  and  _33
REMARK   15  A    between atoms: _36  and  _38
REMARK   16  A    between atoms: _38  and  _39
REMARK   17  A    between atoms: _38  and  _41
REMARK   18  A    between atoms: _41  and  _42
REMARK   19  A    between atoms: _45  and  _47
REMARK   20  A    between atoms: _47  and  _48
REMARK   21  A    between atoms: _47  and  _50
REMARK   22  A    between atoms: _50  and  _51
REMARK   23  A    between atoms: _54  and  _56
REMARK   24  A    between atoms: _56  and  _57
REMARK   25  A    between atoms: _59  and  _61
REMARK   26  A    between atoms: _61  and  _62
REMARK   27  A    between atoms: _65  and  _67
REMARK   28  A    between atoms: _67  and  _68
REMARK   29  A    between atoms: _67  and  _70
REMARK   30  A    between atoms: _70  and  _71
REMARK   31  A    between atoms: _74  and  _76
REMARK   32  A    between atoms: _76  and  _77
REMARK   33  A    between atoms: _76  and  _79
REMARK   34  A    between atoms: _79  and  _80
REMARK   35  A    between atoms: _83  and  _85
REMARK   36  A    between atoms: _85  and  _86
REMARK   37  A    between atoms: _85  and  _88
REMARK   38  A    between atoms: _88  and  _89
REMARK   39  A    between atoms: _92  and  _94
REMARK   40  A    between atoms: _94  and  _95
REMARK   41  A    between atoms: _94  and  _97
REMARK   42  A    between atoms: _100  and  _102
REMARK   43  A    between atoms: _102  and  _103
REMARK   44  A    between atoms: _102  and  _105
REMARK   45  A    between atoms: _105  and  _106
REMARK   46  A    between atoms: _106  and  _107
REMARK   47  A    between atoms: _107  and  _108
REMARK   48  A    between atoms: _108  and  _109
REMARK   49  A    between atoms: _113  and  _115
REMARK   50  A    between atoms: _115  and  _116
REMARK   51  A    between atoms: _115  and  _118
REMARK   52  A    between atoms: _118  and  _119
REMARK   53  A    between atoms: _119  and  _120
REMARK   54  A    between atoms: _122  and  _124
REMARK   55  A    between atoms: _124  and  _125
REMARK   56  A    between atoms: _124  and  _127
REMARK   57  A    between atoms: _127  and  _128
REMARK   58  A    between atoms: _131  and  _133
REMARK   59  A    between atoms: _133  and  _134
REMARK   60  A    between atoms: _133  and  _136
REMARK   61  A    between atoms: _136  and  _137
REMARK   62  A    between atoms: _140  and  _142
REMARK   63  A    between atoms: _142  and  _143
REMARK   64  A    between atoms: _145  and  _147
REMARK   65  A    between atoms: _147  and  _148
REMARK   66  A    between atoms: _147  and  _150
REMARK   67  A    between atoms: _150  and  _151
REMARK   68  A    between atoms: _154  and  _156
REMARK   69  A    between atoms: _156  and  _157
REMARK   70  A    between atoms: _159  and  _161
REMARK   71  A    between atoms: _161  and  _162
REMARK   72  A    between atoms: _164  and  _166
REMARK   73  A    between atoms: _166  and  _167
REMARK   74  A    between atoms: _166  and  _169
REMARK   75  A    between atoms: _169  and  _170
REMARK   76  A    between atoms: _176  and  _178
REMARK   77  A    between atoms: _178  and  _179
REMARK   78  A    between atoms: _178  and  _181
REMARK   79  A    between atoms: _181  and  _182
REMARK   80  A    between atoms: _185  and  _187
REMARK   81  A    between atoms: _187  and  _188
REMARK   82  A    between atoms: _187  and  _190
REMARK   83  A    between atoms: _193  and  _195
REMARK   84  A    between atoms: _195  and  _196
REMARK   85  A    between atoms: _195  and  _198
REMARK   86  A    between atoms: _198  and  _199
REMARK   87  A    between atoms: _203  and  _204
REMARK   88  A    between atoms: _209  and  _211
REMARK   89  A    between atoms: _211  and  _212
REMARK   90  A    between atoms: _211  and  _214
REMARK   91  A    between atoms: _214  and  _215
REMARK   92  A    between atoms: _219  and  _220
REMARK   93  A    between atoms: _225  and  _227
REMARK   94  A    between atoms: _227  and  _228
REMARK   95  A    between atoms: _227  and  _230
REMARK   96  A    between atoms: _233  and  _235
REMARK   97  A    between atoms: _235  and  _236
REMARK   98  A    between atoms: _235  and  _238
REMARK   99  A    between atoms: _238  and  _239
REMARK  100  A    between atoms: _244  and  _246
REMARK  101  A    between atoms: _246  and  _247
REMARK  102  A    between atoms: _246  and  _249
REMARK  103  A    between atoms: _249  and  _250
REMARK  104  A    between atoms: _253  and  _255
REMARK  105  A    between atoms: _255  and  _256
REMARK  106  A    between atoms: _255  and  _258
REMARK  107  A    between atoms: _258  and  _259
REMARK  108  A    between atoms: _262  and  _264
REMARK  109  A    between atoms: _264  and  _265
REMARK  110  A    between atoms: _267  and  _269
REMARK  111  A    between atoms: _269  and  _270
REMARK  112  A    between atoms: _269  and  _272
REMARK  113  A    between atoms: _272  and  _273
REMARK  114  A    between atoms: _273  and  _274
REMARK  115  A    between atoms: _274  and  _275
REMARK  116  A    between atoms: _284  and  _286
REMARK  117  A    between atoms: _286  and  _287
REMARK  118  A    between atoms: _286  and  _289
REMARK  119  A    between atoms: _289  and  _290
REMARK  120  A    between atoms: _295  and  _297
REMARK  121  A    between atoms: _297  and  _298
REMARK  122  A    between atoms: _297  and  _300
REMARK  123  A    between atoms: _300  and  _301
REMARK  124  A    between atoms: _301  and  _302
REMARK  125  A    between atoms: _302  and  _303
REMARK  126  A    between atoms: _312  and  _314
REMARK  127  A    between atoms: _314  and  _315
REMARK  128  A    between atoms: _314  and  _317
REMARK  129  A    between atoms: _317  and  _318
REMARK  130  A    between atoms: _321  and  _323
REMARK  131  A    between atoms: _323  and  _324
REMARK  132  A    between atoms: _323  and  _326
REMARK  133  A    between atoms: _326  and  _327
REMARK  134  A    between atoms: _330  and  _332
REMARK  135  A    between atoms: _332  and  _333
REMARK  136  A    between atoms: _332  and  _335
REMARK  137  A    between atoms: _335  and  _336
REMARK  138  A    between atoms: _339  and  _341
REMARK  139  A    between atoms: _341  and  _342
REMARK  140  A    between atoms: _341  and  _344
REMARK  141  A    between atoms: _344  and  _345
REMARK  142  A    between atoms: _348  and  _350
REMARK  143  A    between atoms: _350  and  _351
REMARK  144  A    between atoms: _353  and  _355
REMARK  145  A    between atoms: _355  and  _356
REMARK  146  A    between atoms: _359  and  _361
REMARK  147  A    between atoms: _361  and  _362
REMARK  148  A    between atoms: _361  and  _364
REMARK  149  A    between atoms: _364  and  _365
REMARK  150  A    between atoms: _368  and  _370
REMARK  151  A    between atoms: _370  and  _371
REMARK  152  A    between atoms: _370  and  _373
REMARK  153  A    between atoms: _373  and  _374
REMARK  154  A    between atoms: _377  and  _379
REMARK  155  A    between atoms: _379  and  _380
REMARK  156  A    between atoms: _379  and  _382
REMARK  157  A    between atoms: _382  and  _383
REMARK  158  A    between atoms: _386  and  _388
REMARK  159  A    between atoms: _388  and  _389
REMARK  160  A    between atoms: _388  and  _391
REMARK  161  A    between atoms: _394  and  _396
REMARK  162  A    between atoms: _396  and  _397
REMARK  163  A    between atoms: _396  and  _399
REMARK  164  A    between atoms: _399  and  _400
REMARK  165  A    between atoms: _403  and  _405
REMARK  166  A    between atoms: _405  and  _406
REMARK  167  A    between atoms: _405  and  _408
REMARK  168  A    between atoms: _408  and  _409
REMARK  169  A    between atoms: _409  and  _410
REMARK  170  A    between atoms: _410  and  _411
REMARK  171  A    between atoms: _411  and  _412
REMARK  172  A    between atoms: _416  and  _418
REMARK  173  A    between atoms: _418  and  _419
REMARK  174  A    between atoms: _418  and  _421
REMARK  175  A    between atoms: _421  and  _422
REMARK  176  A    between atoms: _425  and  _427
REMARK  177  A    between atoms: _427  and  _428
REMARK  178  A    between atoms: _427  and  _430
REMARK  179  A    between atoms: _430  and  _431
REMARK  180  A    between atoms: _434  and  _436
REMARK  181  A    between atoms: _436  and  _437
REMARK  182  A    between atoms: _439  and  _441
REMARK  183  A    between atoms: _441  and  _442
REMARK  184  A    between atoms: _441  and  _444
REMARK  185  A    between atoms: _444  and  _445
REMARK  186  A    between atoms: _448  and  _450
REMARK  187  A    between atoms: _450  and  _451
REMARK  188  A    between atoms: _453  and  _455
REMARK  189  A    between atoms: _455  and  _456
REMARK  190  A    between atoms: _458  and  _460
REMARK  191  A    between atoms: _460  and  _461
REMARK  192  A    between atoms: _460  and  _463
REMARK  193  A    between atoms: _463  and  _464
REMARK  194  A    between atoms: _467  and  _469
REMARK  195  A    between atoms: _469  and  _470
REMARK  196  A    between atoms: _469  and  _472
REMARK  197  A    between atoms: _475  and  _477
REMARK  198  A    between atoms: _477  and  _478
REMARK  199  A    between atoms: _477  and  _480
REMARK  200  A    between atoms: _480  and  _481
REMARK  201  A    between atoms: _485  and  _486
REMARK  202  A    between atoms: _491  and  _493
REMARK  203  A    between atoms: _493  and  _494
REMARK  204  A    between atoms: _493  and  _496
REMARK  205  A    between atoms: _496  and  _497
REMARK  206  A    between atoms: _501  and  _502
REMARK  207  A    between atoms: _507  and  _509
REMARK  208  A    between atoms: _509  and  _510
REMARK  209  A    between atoms: _509  and  _512
REMARK  210  A    between atoms: _515  and  _517
REMARK  211  A    between atoms: _517  and  _518
REMARK  212  A    between atoms: _517  and  _520
REMARK  213  A    between atoms: _520  and  _521
REMARK  214  A    between atoms: _526  and  _528
REMARK  215  A    between atoms: _528  and  _529
REMARK  216  A    between atoms: _528  and  _531
REMARK  217  A    between atoms: _531  and  _532
REMARK  218  A    between atoms: _535  and  _537
REMARK  219  A    between atoms: _537  and  _538
REMARK  220  A    between atoms: _537  and  _540
REMARK  221  A    between atoms: _540  and  _541
REMARK  222  A    between atoms: _544  and  _546
REMARK  223  A    between atoms: _546  and  _547
REMARK  224  A    between atoms: _549  and  _551
REMARK  225  A    between atoms: _551  and  _552
REMARK  226  A    between atoms: _551  and  _554
REMARK  227  A    between atoms: _554  and  _555
REMARK  228  A    between atoms: _555  and  _556
REMARK  229  A    between atoms: _556  and  _557
REMARK                            x       y       z     vdW  Elec       q    Type
REMARK                         _______ _______ _______ _____ _____    ______ ____
ROOT
ATOM      1  O   HOH     1      22.790 -11.124 -14.840  0.00  0.00    +0.000 OA
ENDROOT
TORSDOF 0
REMARK  Name = ../refined-set-2016/4qgi/4qgi_pocket.pdb
REMARK  229 active torsions:
REMARK  status: ('A' for Active; 'I' for Inactive)
REMARK    1  A    between atoms: _1  and  _3
REMARK    2  A    between atoms: _3  and  _4
REMARK    3  A    between atoms: _3  and  _6
REMARK    4  A    between atoms: _6  and  _7
REMARK    5  A    between atoms: _7  and  _8
REMARK    6  A    between atoms: _8  and  _9
REMARK    7  A    between atoms: _18  and  _20
REMARK    8  A    between atoms: _20  and  _21
REMARK    9  A    between atoms: _20  and  _23
REMARK   10  A    between atoms: _23  and  _24
REMARK   11  A    between atoms: _27  and  _29
REMARK   12  A    between atoms: _29  and  _30
REMARK   13  A    between atoms: _29  and  _32
REMARK   14  A    between atoms: _32  and  _33
REMARK   15  A    between atoms: _36  and  _38
REMARK   16  A    between atoms: _38  and  _39
REMARK   17  A    between atoms: _38  and  _41
REMARK   18  A    between atoms: _41  and  _42
REMARK   19  A    between atoms: _45  and  _47
REMARK   20  A    between atoms: _47  and  _48
REMARK   21  A    between atoms: _47  and  _50
REMARK   22  A    between atoms: _50  and  _51
REMARK   23  A    between atoms: _54  and  _56
REMARK   24  A    between atoms: _56  and  _57
REMARK   25  A    between atoms: _59  and  _61
REMARK   26  A    between atoms: _61  and  _62
REMARK   27  A    between atoms: _65  and  _67
REMARK   28  A    between atoms: _67  and  _68
REMARK   29  A    between atoms: _67  and  _70
REMARK   30  A    between atoms: _70  and  _71
REMARK   31  A    between atoms: _74  and  _76
REMARK   32  A    between atoms: _76  and  _77
REMARK   33  A    between atoms: _76  and  _79
REMARK   34  A    between atoms: _79  and  _80
REMARK   35  A    between atoms: _83  and  _85
REMARK   36  A    between atoms: _85  and  _86
REMARK   37  A    between atoms: _85  and  _88
REMARK   38  A    between atoms: _88  and  _89
REMARK   39  A    between atoms: _92  and  _94
REMARK   40  A    between atoms: _94  and  _95
REMARK   41  A    between atoms: _94  and  _97
REMARK   42  A    between atoms: _100  and  _102
REMARK   43  A    between atoms: _102  and  _103
REMARK   44  A    between atoms: _102  and  _105
REMARK   45  A    between atoms: _105  and  _106
REMARK   46  A    between atoms: _106  and  _107
REMARK   47  A    between atoms: _107  and  _108
REMARK   48  A    between atoms: _108  and  _109
REMARK   49  A    between atoms: _113  and  _115
REMARK   50  A    between atoms: _115  and  _116
REMARK   51  A    between atoms: _115  and  _118
REMARK   52  A    between atoms: _118  and  _119
REMARK   53  A    between atoms: _119  and  _120
REMARK   54  A    between atoms: _122  and  _124
REMARK   55  A    between atoms: _124  and  _125
REMARK   56  A    between atoms: _124  and  _127
REMARK   57  A    between atoms: _127  and  _128
REMARK   58  A    between atoms: _131  and  _133
REMARK   59  A    between atoms: _133  and  _134
REMARK   60  A    between atoms: _133  and  _136
REMARK   61  A    between atoms: _136  and  _137
REMARK   62  A    between atoms: _140  and  _142
REMARK   63  A    between atoms: _142  and  _143
REMARK   64  A    between atoms: _145  and  _147
REMARK   65  A    between atoms: _147  and  _148
REMARK   66  A    between atoms: _147  and  _150
REMARK   67  A    between atoms: _150  and  _151
REMARK   68  A    between atoms: _154  and  _156
REMARK   69  A    between atoms: _156  and  _157
REMARK   70  A    between atoms: _159  and  _161
REMARK   71  A    between atoms: _161  and  _162
REMARK   72  A    between atoms: _164  and  _166
REMARK   73  A    between atoms: _166  and  _167
REMARK   74  A    between atoms: _166  and  _169
REMARK   75  A    between atoms: _169  and  _170
REMARK   76  A    between atoms: _176  and  _178
REMARK   77  A    between atoms: _178  and  _179
REMARK   78  A    between atoms: _178  and  _181
REMARK   79  A    between atoms: _181  and  _182
REMARK   80  A    between atoms: _185  and  _187
REMARK   81  A    between atoms: _187  and  _188
REMARK   82  A    between atoms: _187  and  _190
REMARK   83  A    between atoms: _193  and  _195
REMARK   84  A    between atoms: _195  and  _196
REMARK   85  A    between atoms: _195  and  _198
REMARK   86  A    between atoms: _198  and  _199
REMARK   87  A    between atoms: _203  and  _204
REMARK   88  A    between atoms: _209  and  _211
REMARK   89  A    between atoms: _211  and  _212
REMARK   90  A    between atoms: _211  and  _214
REMARK   91  A    between atoms: _214  and  _215
REMARK   92  A    between atoms: _219  and  _220
REMARK   93  A    between atoms: _225  and  _227
REMARK   94  A    between atoms: _227  and  _228
REMARK   95  A    between atoms: _227  and  _230
REMARK   96  A    between atoms: _233  and  _235
REMARK   97  A    between atoms: _235  and  _236
REMARK   98  A    between atoms: _235  and  _238
REMARK   99  A    between atoms: _238  and  _239
REMARK  100  A    between atoms: _244  and  _246
REMARK  101  A    between atoms: _246  and  _247
REMARK  102  A    between atoms: _246  and  _249
REMARK  103  A    between atoms: _249  and  _250
REMARK  104  A    between atoms: _253  and  _255
REMARK  105  A    between atoms: _255  and  _256
REMARK  106  A    between atoms: _255  and  _258
REMARK  107  A    between atoms: _258  and  _259
REMARK  108  A    between atoms: _262  and  _264
REMARK  109  A    between atoms: _264  and  _265
REMARK  110  A    between atoms: _267  and  _269
REMARK  111  A    between atoms: _269  and  _270
REMARK  112  A    between atoms: _269  and  _272
REMARK  113  A    between atoms: _272  and  _273
REMARK  114  A    between atoms: _273  and  _274
REMARK  115  A    between atoms: _274  and  _275
REMARK  116  A    between atoms: _284  and  _286
REMARK  117  A    between atoms: _286  and  _287
REMARK  118  A    between atoms: _286  and  _289
REMARK  119  A    between atoms: _289  and  _290
REMARK  120  A    between atoms: _295  and  _297
REMARK  121  A    between atoms: _297  and  _298
REMARK  122  A    between atoms: _297  and  _300
REMARK  123  A    between atoms: _300  and  _301
REMARK  124  A    between atoms: _301  and  _302
REMARK  125  A    between atoms: _302  and  _303
REMARK  126  A    between atoms: _312  and  _314
REMARK  127  A    between atoms: _314  and  _315
REMARK  128  A    between atoms: _314  and  _317
REMARK  129  A    between atoms: _317  and  _318
REMARK  130  A    between atoms: _321  and  _323
REMARK  131  A    between atoms: _323  and  _324
REMARK  132  A    between atoms: _323  and  _326
REMARK  133  A    between atoms: _326  and  _327
REMARK  134  A    between atoms: _330  and  _332
REMARK  135  A    between atoms: _332  and  _333
REMARK  136  A    between atoms: _332  and  _335
REMARK  137  A    between atoms: _335  and  _336
REMARK  138  A    between atoms: _339  and  _341
REMARK  139  A    between atoms: _341  and  _342
REMARK  140  A    between atoms: _341  and  _344
REMARK  141  A    between atoms: _344  and  _345
REMARK  142  A    between atoms: _348  and  _350
REMARK  143  A    between atoms: _350  and  _351
REMARK  144  A    between atoms: _353  and  _355
REMARK  145  A    between atoms: _355  and  _356
REMARK  146  A    between atoms: _359  and  _361
REMARK  147  A    between atoms: _361  and  _362
REMARK  148  A    between atoms: _361  and  _364
REMARK  149  A    between atoms: _364  and  _365
REMARK  150  A    between atoms: _368  and  _370
REMARK  151  A    between atoms: _370  and  _371
REMARK  152  A    between atoms: _370  and  _373
REMARK  153  A    between atoms: _373  and  _374
REMARK  154  A    between atoms: _377  and  _379
REMARK  155  A    between atoms: _379  and  _380
REMARK  156  A    between atoms: _379  and  _382
REMARK  157  A    between atoms: _382  and  _383
REMARK  158  A    between atoms: _386  and  _388
REMARK  159  A    between atoms: _388  and  _389
REMARK  160  A    between atoms: _388  and  _391
REMARK  161  A    between atoms: _394  and  _396
REMARK  162  A    between atoms: _396  and  _397
REMARK  163  A    between atoms: _396  and  _399
REMARK  164  A    between atoms: _399  and  _400
REMARK  165  A    between atoms: _403  and  _405
REMARK  166  A    between atoms: _405  and  _406
REMARK  167  A    between atoms: _405  and  _408
REMARK  168  A    between atoms: _408  and  _409
REMARK  169  A    between atoms: _409  and  _410
REMARK  170  A    between atoms: _410  and  _411
REMARK  171  A    between atoms: _411  and  _412
REMARK  172  A    between atoms: _416  and  _418
REMARK  173  A    between atoms: _418  and  _419
REMARK  174  A    between atoms: _418  and  _421
REMARK  175  A    between atoms: _421  and  _422
REMARK  176  A    between atoms: _425  and  _427
REMARK  177  A    between atoms: _427  and  _428
REMARK  178  A    between atoms: _427  and  _430
REMARK  179  A    between atoms: _430  and  _431
REMARK  180  A    between atoms: _434  and  _436
REMARK  181  A    between atoms: _436  and  _437
REMARK  182  A    between atoms: _439  and  _441
REMARK  183  A    between atoms: _441  and  _442
REMARK  184  A    between atoms: _441  and  _444
REMARK  185  A    between atoms: _444  and  _445
REMARK  186  A    between atoms: _448  and  _450
REMARK  187  A    between atoms: _450  and  _451
REMARK  188  A    between atoms: _453  and  _455
REMARK  189  A    between atoms: _455  and  _456
REMARK  190  A    between atoms: _458  and  _460
REMARK  191  A    between atoms: _460  and  _461
REMARK  192  A    between atoms: _460  and  _463
REMARK  193  A    between atoms: _463  and  _464
REMARK  194  A    between atoms: _467  and  _469
REMARK  195  A    between atoms: _469  and  _470
REMARK  196  A    between atoms: _469  and  _472
REMARK  197  A    between atoms: _475  and  _477
REMARK  198  A    between atoms: _477  and  _478
REMARK  199  A    between atoms: _477  and  _480
REMARK  200  A    between atoms: _480  and  _481
REMARK  201  A    between atoms: _485  and  _486
REMARK  202  A    between atoms: _491  and  _493
REMARK  203  A    between atoms: _493  and  _494
REMARK  204  A    between atoms: _493  and  _496
REMARK  205  A    between atoms: _496  and  _497
REMARK  206  A    between atoms: _501  and  _502
REMARK  207  A    between atoms: _507  and  _509
REMARK  208  A    between atoms: _509  and  _510
REMARK  209  A    between atoms: _509  and  _512
REMARK  210  A    between atoms: _515  and  _517
REMARK  211  A    between atoms: _517  and  _518
REMARK  212  A    between atoms: _517  and  _520
REMARK  213  A    between atoms: _520  and  _521
REMARK  214  A    between atoms: _526  and  _528
REMARK  215  A    between atoms: _528  and  _529
REMARK  216  A    between atoms: _528  and  _531
REMARK  217  A    between atoms: _531  and  _532
REMARK  218  A    between atoms: _535  and  _537
REMARK  219  A    between atoms: _537  and  _538
REMARK  220  A    between atoms: _537  and  _540
REMARK  221  A    between atoms: _540  and  _541
REMARK  222  A    between atoms: _544  and  _546
REMARK  223  A    between atoms: _546  and  _547
REMARK  224  A    between atoms: _549  and  _551
REMARK  225  A    between atoms: _551  and  _552
REMARK  226  A    between atoms: _551  and  _554
REMARK  227  A    between atoms: _554  and  _555
REMARK  228  A    between atoms: _555  and  _556
REMARK  229  A    between atoms: _556  and  _557
REMARK                            x       y       z     vdW  Elec       q    Type
REMARK                         _______ _______ _______ _____ _____    ______ ____
ROOT
ATOM      1  O   HOH     1       4.637  -8.098  -6.548  0.00  0.00    +0.000 OA
ENDROOT
TORSDOF 0
REMARK  Name = ../refined-set-2016/4qgi/4qgi_pocket.pdb
REMARK  229 active torsions:
REMARK  status: ('A' for Active; 'I' for Inactive)
REMARK    1  A    between atoms: _1  and  _3
REMARK    2  A    between atoms: _3  and  _4
REMARK    3  A    between atoms: _3  and  _6
REMARK    4  A    between atoms: _6  and  _7
REMARK    5  A    between atoms: _7  and  _8
REMARK    6  A    between atoms: _8  and  _9
REMARK    7  A    between atoms: _18  and  _20
REMARK    8  A    between atoms: _20  and  _21
REMARK    9  A    between atoms: _20  and  _23
REMARK   10  A    between atoms: _23  and  _24
REMARK   11  A    between atoms: _27  and  _29
REMARK   12  A    between atoms: _29  and  _30
REMARK   13  A    between atoms: _29  and  _32
REMARK   14  A    between atoms: _32  and  _33
REMARK   15  A    between atoms: _36  and  _38
REMARK   16  A    between atoms: _38  and  _39
REMARK   17  A    between atoms: _38  and  _41
REMARK   18  A    between atoms: _41  and  _42
REMARK   19  A    between atoms: _45  and  _47
REMARK   20  A    between atoms: _47  and  _48
REMARK   21  A    between atoms: _47  and  _50
REMARK   22  A    between atoms: _50  and  _51
REMARK   23  A    between atoms: _54  and  _56
REMARK   24  A    between atoms: _56  and  _57
REMARK   25  A    between atoms: _59  and  _61
REMARK   26  A    between atoms: _61  and  _62
REMARK   27  A    between atoms: _65  and  _67
REMARK   28  A    between atoms: _67  and  _68
REMARK   29  A    between atoms: _67  and  _70
REMARK   30  A    between atoms: _70  and  _71
REMARK   31  A    between atoms: _74  and  _76
REMARK   32  A    between atoms: _76  and  _77
REMARK   33  A    between atoms: _76  and  _79
REMARK   34  A    between atoms: _79  and  _80
REMARK   35  A    between atoms: _83  and  _85
REMARK   36  A    between atoms: _85  and  _86
REMARK   37  A    between atoms: _85  and  _88
REMARK   38  A    between atoms: _88  and  _89
REMARK   39  A    between atoms: _92  and  _94
REMARK   40  A    between atoms: _94  and  _95
REMARK   41  A    between atoms: _94  and  _97
REMARK   42  A    between atoms: _100  and  _102
REMARK   43  A    between atoms: _102  and  _103
REMARK   44  A    between atoms: _102  and  _105
REMARK   45  A    between atoms: _105  and  _106
REMARK   46  A    between atoms: _106  and  _107
REMARK   47  A    between atoms: _107  and  _108
REMARK   48  A    between atoms: _108  and  _109
REMARK   49  A    between atoms: _113  and  _115
REMARK   50  A    between atoms: _115  and  _116
REMARK   51  A    between atoms: _115  and  _118
REMARK   52  A    between atoms: _118  and  _119
REMARK   53  A    between atoms: _119  and  _120
REMARK   54  A    between atoms: _122  and  _124
REMARK   55  A    between atoms: _124  and  _125
REMARK   56  A    between atoms: _124  and  _127
REMARK   57  A    between atoms: _127  and  _128
REMARK   58  A    between atoms: _131  and  _133
REMARK   59  A    between atoms: _133  and  _134
REMARK   60  A    between atoms: _133  and  _136
REMARK   61  A    between atoms: _136  and  _137
REMARK   62  A    between atoms: _140  and  _142
REMARK   63  A    between atoms: _142  and  _143
REMARK   64  A    between atoms: _145  and  _147
REMARK   65  A    between atoms: _147  and  _148
REMARK   66  A    between atoms: _147  and  _150
REMARK   67  A    between atoms: _150  and  _151
REMARK   68  A    between atoms: _154  and  _156
REMARK   69  A    between atoms: _156  and  _157
REMARK   70  A    between atoms: _159  and  _161
REMARK   71  A    between atoms: _161  and  _162
REMARK   72  A    between atoms: _164  and  _166
REMARK   73  A    between atoms: _166  and  _167
REMARK   74  A    between atoms: _166  and  _169
REMARK   75  A    between atoms: _169  and  _170
REMARK   76  A    between atoms: _176  and  _178
REMARK   77  A    between atoms: _178  and  _179
REMARK   78  A    between atoms: _178  and  _181
REMARK   79  A    between atoms: _181  and  _182
REMARK   80  A    between atoms: _185  and  _187
REMARK   81  A    between atoms: _187  and  _188
REMARK   82  A    between atoms: _187  and  _190
REMARK   83  A    between atoms: _193  and  _195
REMARK   84  A    between atoms: _195  and  _196
REMARK   85  A    between atoms: _195  and  _198
REMARK   86  A    between atoms: _198  and  _199
REMARK   87  A    between atoms: _203  and  _204
REMARK   88  A    between atoms: _209  and  _211
REMARK   89  A    between atoms: _211  and  _212
REMARK   90  A    between atoms: _211  and  _214
REMARK   91  A    between atoms: _214  and  _215
REMARK   92  A    between atoms: _219  and  _220
REMARK   93  A    between atoms: _225  and  _227
REMARK   94  A    between atoms: _227  and  _228
REMARK   95  A    between atoms: _227  and  _230
REMARK   96  A    between atoms: _233  and  _235
REMARK   97  A    between atoms: _235  and  _236
REMARK   98  A    between atoms: _235  and  _238
REMARK   99  A    between atoms: _238  and  _239
REMARK  100  A    between atoms: _244  and  _246
REMARK  101  A    between atoms: _246  and  _247
REMARK  102  A    between atoms: _246  and  _249
REMARK  103  A    between atoms: _249  and  _250
REMARK  104  A    between atoms: _253  and  _255
REMARK  105  A    between atoms: _255  and  _256
REMARK  106  A    between atoms: _255  and  _258
REMARK  107  A    between atoms: _258  and  _259
REMARK  108  A    between atoms: _262  and  _264
REMARK  109  A    between atoms: _264  and  _265
REMARK  110  A    between atoms: _267  and  _269
REMARK  111  A    between atoms: _269  and  _270
REMARK  112  A    between atoms: _269  and  _272
REMARK  113  A    between atoms: _272  and  _273
REMARK  114  A    between atoms: _273  and  _274
REMARK  115  A    between atoms: _274  and  _275
REMARK  116  A    between atoms: _284  and  _286
REMARK  117  A    between atoms: _286  and  _287
REMARK  118  A    between atoms: _286  and  _289
REMARK  119  A    between atoms: _289  and  _290
REMARK  120  A    between atoms: _295  and  _297
REMARK  121  A    between atoms: _297  and  _298
REMARK  122  A    between atoms: _297  and  _300
REMARK  123  A    between atoms: _300  and  _301
REMARK  124  A    between atoms: _301  and  _302
REMARK  125  A    between atoms: _302  and  _303
REMARK  126  A    between atoms: _312  and  _314
REMARK  127  A    between atoms: _314  and  _315
REMARK  128  A    between atoms: _314  and  _317
REMARK  129  A    between atoms: _317  and  _318
REMARK  130  A    between atoms: _321  and  _323
REMARK  131  A    between atoms: _323  and  _324
REMARK  132  A    between atoms: _323  and  _326
REMARK  133  A    between atoms: _326  and  _327
REMARK  134  A    between atoms: _330  and  _332
REMARK  135  A    between atoms: _332  and  _333
REMARK  136  A    between atoms: _332  and  _335
REMARK  137  A    between atoms: _335  and  _336
REMARK  138  A    between atoms: _339  and  _341
REMARK  139  A    between atoms: _341  and  _342
REMARK  140  A    between atoms: _341  and  _344
REMARK  141  A    between atoms: _344  and  _345
REMARK  142  A    between atoms: _348  and  _350
REMARK  143  A    between atoms: _350  and  _351
REMARK  144  A    between atoms: _353  and  _355
REMARK  145  A    between atoms: _355  and  _356
REMARK  146  A    between atoms: _359  and  _361
REMARK  147  A    between atoms: _361  and  _362
REMARK  148  A    between atoms: _361  and  _364
REMARK  149  A    between atoms: _364  and  _365
REMARK  150  A    between atoms: _368  and  _370
REMARK  151  A    between atoms: _370  and  _371
REMARK  152  A    between atoms: _370  and  _373
REMARK  153  A    between atoms: _373  and  _374
REMARK  154  A    between atoms: _377  and  _379
REMARK  155  A    between atoms: _379  and  _380
REMARK  156  A    between atoms: _379  and  _382
REMARK  157  A    between atoms: _382  and  _383
REMARK  158  A    between atoms: _386  and  _388
REMARK  159  A    between atoms: _388  and  _389
REMARK  160  A    between atoms: _388  and  _391
REMARK  161  A    between atoms: _394  and  _396
REMARK  162  A    between atoms: _396  and  _397
REMARK  163  A    between atoms: _396  and  _399
REMARK  164  A    between atoms: _399  and  _400
REMARK  165  A    between atoms: _403  and  _405
REMARK  166  A    between atoms: _405  and  _406
REMARK  167  A    between atoms: _405  and  _408
REMARK  168  A    between atoms: _408  and  _409
REMARK  169  A    between atoms: _409  and  _410
REMARK  170  A    between atoms: _410  and  _411
REMARK  171  A    between atoms: _411  and  _412
REMARK  172  A    between atoms: _416  and  _418
REMARK  173  A    between atoms: _418  and  _419
REMARK  174  A    between atoms: _418  and  _421
REMARK  175  A    between atoms: _421  and  _422
REMARK  176  A    between atoms: _425  and  _427
REMARK  177  A    between atoms: _427  and  _428
REMARK  178  A    between atoms: _427  and  _430
REMARK  179  A    between atoms: _430  and  _431
REMARK  180  A    between atoms: _434  and  _436
REMARK  181  A    between atoms: _436  and  _437
REMARK  182  A    between atoms: _439  and  _441
REMARK  183  A    between atoms: _441  and  _442
REMARK  184  A    between atoms: _441  and  _444
REMARK  185  A    between atoms: _444  and  _445
REMARK  186  A    between atoms: _448  and  _450
REMARK  187  A    between atoms: _450  and  _451
REMARK  188  A    between atoms: _453  and  _455
REMARK  189  A    between atoms: _455  and  _456
REMARK  190  A    between atoms: _458  and  _460
REMARK  191  A    between atoms: _460  and  _461
REMARK  192  A    between atoms: _460  and  _463
REMARK  193  A    between atoms: _463  and  _464
REMARK  194  A    between atoms: _467  and  _469
REMARK  195  A    between atoms: _469  and  _470
REMARK  196  A    between atoms: _469  and  _472
REMARK  197  A    between atoms: _475  and  _477
REMARK  198  A    between atoms: _477  and  _478
REMARK  199  A    between atoms: _477  and  _480
REMARK  200  A    between atoms: _480  and  _481
REMARK  201  A    between atoms: _485  and  _486
REMARK  202  A    between atoms: _491  and  _493
REMARK  203  A    between atoms: _493  and  _494
REMARK  204  A    between atoms: _493  and  _496
REMARK  205  A    between atoms: _496  and  _497
REMARK  206  A    between atoms: _501  and  _502
REMARK  207  A    between atoms: _507  and  _509
REMARK  208  A    between atoms: _509  and  _510
REMARK  209  A    between atoms: _509  and  _512
REMARK  210  A    between atoms: _515  and  _517
REMARK  211  A    between atoms: _517  and  _518
REMARK  212  A    between atoms: _517  and  _520
REMARK  213  A    between atoms: _520  and  _521
REMARK  214  A    between atoms: _526  and  _528
REMARK  215  A    between atoms: _528  and  _529
REMARK  216  A    between atoms: _528  and  _531
REMARK  217  A    between atoms: _531  and  _532
REMARK  218  A    between atoms: _535  and  _537
REMARK  219  A    between atoms: _537  and  _538
REMARK  220  A    between atoms: _537  and  _540
REMARK  221  A    between atoms: _540  and  _541
REMARK  222  A    between atoms: _544  and  _546
REMARK  223  A    between atoms: _546  and  _547
REMARK  224  A    between atoms: _549  and  _551
REMARK  225  A    between atoms: _551  and  _552
REMARK  226  A    between atoms: _551  and  _554
REMARK  227  A    between atoms: _554  and  _555
REMARK  228  A    between atoms: _555  and  _556
REMARK  229  A    between atoms: _556  and  _557
REMARK                            x       y       z     vdW  Elec       q    Type
REMARK                         _______ _______ _______ _____ _____    ______ ____
ROOT
ATOM      1  O   HOH     1       4.169 -10.807  -6.994  0.00  0.00    +0.000 OA
ENDROOT
TORSDOF 0
REMARK  Name = ../refined-set-2016/4qgi/4qgi_pocket.pdb
REMARK  229 active torsions:
REMARK  status: ('A' for Active; 'I' for Inactive)
REMARK    1  A    between atoms: _1  and  _3
REMARK    2  A    between atoms: _3  and  _4
REMARK    3  A    between atoms: _3  and  _6
REMARK    4  A    between atoms: _6  and  _7
REMARK    5  A    between atoms: _7  and  _8
REMARK    6  A    between atoms: _8  and  _9
REMARK    7  A    between atoms: _18  and  _20
REMARK    8  A    between atoms: _20  and  _21
REMARK    9  A    between atoms: _20  and  _23
REMARK   10  A    between atoms: _23  and  _24
REMARK   11  A    between atoms: _27  and  _29
REMARK   12  A    between atoms: _29  and  _30
REMARK   13  A    between atoms: _29  and  _32
REMARK   14  A    between atoms: _32  and  _33
REMARK   15  A    between atoms: _36  and  _38
REMARK   16  A    between atoms: _38  and  _39
REMARK   17  A    between atoms: _38  and  _41
REMARK   18  A    between atoms: _41  and  _42
REMARK   19  A    between atoms: _45  and  _47
REMARK   20  A    between atoms: _47  and  _48
REMARK   21  A    between atoms: _47  and  _50
REMARK   22  A    between atoms: _50  and  _51
REMARK   23  A    between atoms: _54  and  _56
REMARK   24  A    between atoms: _56  and  _57
REMARK   25  A    between atoms: _59  and  _61
REMARK   26  A    between atoms: _61  and  _62
REMARK   27  A    between atoms: _65  and  _67
REMARK   28  A    between atoms: _67  and  _68
REMARK   29  A    between atoms: _67  and  _70
REMARK   30  A    between atoms: _70  and  _71
REMARK   31  A    between atoms: _74  and  _76
REMARK   32  A    between atoms: _76  and  _77
REMARK   33  A    between atoms: _76  and  _79
REMARK   34  A    between atoms: _79  and  _80
REMARK   35  A    between atoms: _83  and  _85
REMARK   36  A    between atoms: _85  and  _86
REMARK   37  A    between atoms: _85  and  _88
REMARK   38  A    between atoms: _88  and  _89
REMARK   39  A    between atoms: _92  and  _94
REMARK   40  A    between atoms: _94  and  _95
REMARK   41  A    between atoms: _94  and  _97
REMARK   42  A    between atoms: _100  and  _102
REMARK   43  A    between atoms: _102  and  _103
REMARK   44  A    between atoms: _102  and  _105
REMARK   45  A    between atoms: _105  and  _106
REMARK   46  A    between atoms: _106  and  _107
REMARK   47  A    between atoms: _107  and  _108
REMARK   48  A    between atoms: _108  and  _109
REMARK   49  A    between atoms: _113  and  _115
REMARK   50  A    between atoms: _115  and  _116
REMARK   51  A    between atoms: _115  and  _118
REMARK   52  A    between atoms: _118  and  _119
REMARK   53  A    between atoms: _119  and  _120
REMARK   54  A    between atoms: _122  and  _124
REMARK   55  A    between atoms: _124  and  _125
REMARK   56  A    between atoms: _124  and  _127
REMARK   57  A    between atoms: _127  and  _128
REMARK   58  A    between atoms: _131  and  _133
REMARK   59  A    between atoms: _133  and  _134
REMARK   60  A    between atoms: _133  and  _136
REMARK   61  A    between atoms: _136  and  _137
REMARK   62  A    between atoms: _140  and  _142
REMARK   63  A    between atoms: _142  and  _143
REMARK   64  A    between atoms: _145  and  _147
REMARK   65  A    between atoms: _147  and  _148
REMARK   66  A    between atoms: _147  and  _150
REMARK   67  A    between atoms: _150  and  _151
REMARK   68  A    between atoms: _154  and  _156
REMARK   69  A    between atoms: _156  and  _157
REMARK   70  A    between atoms: _159  and  _161
REMARK   71  A    between atoms: _161  and  _162
REMARK   72  A    between atoms: _164  and  _166
REMARK   73  A    between atoms: _166  and  _167
REMARK   74  A    between atoms: _166  and  _169
REMARK   75  A    between atoms: _169  and  _170
REMARK   76  A    between atoms: _176  and  _178
REMARK   77  A    between atoms: _178  and  _179
REMARK   78  A    between atoms: _178  and  _181
REMARK   79  A    between atoms: _181  and  _182
REMARK   80  A    between atoms: _185  and  _187
REMARK   81  A    between atoms: _187  and  _188
REMARK   82  A    between atoms: _187  and  _190
REMARK   83  A    between atoms: _193  and  _195
REMARK   84  A    between atoms: _195  and  _196
REMARK   85  A    between atoms: _195  and  _198
REMARK   86  A    between atoms: _198  and  _199
REMARK   87  A    between atoms: _203  and  _204
REMARK   88  A    between atoms: _209  and  _211
REMARK   89  A    between atoms: _211  and  _212
REMARK   90  A    between atoms: _211  and  _214
REMARK   91  A    between atoms: _214  and  _215
REMARK   92  A    between atoms: _219  and  _220
REMARK   93  A    between atoms: _225  and  _227
REMARK   94  A    between atoms: _227  and  _228
REMARK   95  A    between atoms: _227  and  _230
REMARK   96  A    between atoms: _233  and  _235
REMARK   97  A    between atoms: _235  and  _236
REMARK   98  A    between atoms: _235  and  _238
REMARK   99  A    between atoms: _238  and  _239
REMARK  100  A    between atoms: _244  and  _246
REMARK  101  A    between atoms: _246  and  _247
REMARK  102  A    between atoms: _246  and  _249
REMARK  103  A    between atoms: _249  and  _250
REMARK  104  A    between atoms: _253  and  _255
REMARK  105  A    between atoms: _255  and  _256
REMARK  106  A    between atoms: _255  and  _258
REMARK  107  A    between atoms: _258  and  _259
REMARK  108  A    between atoms: _262  and  _264
REMARK  109  A    between atoms: _264  and  _265
REMARK  110  A    between atoms: _267  and  _269
REMARK  111  A    between atoms: _269  and  _270
REMARK  112  A    between atoms: _269  and  _272
REMARK  113  A    between atoms: _272  and  _273
REMARK  114  A    between atoms: _273  and  _274
REMARK  115  A    between atoms: _274  and  _275
REMARK  116  A    between atoms: _284  and  _286
REMARK  117  A    between atoms: _286  and  _287
REMARK  118  A    between atoms: _286  and  _289
REMARK  119  A    between atoms: _289  and  _290
REMARK  120  A    between atoms: _295  and  _297
REMARK  121  A    between atoms: _297  and  _298
REMARK  122  A    between atoms: _297  and  _300
REMARK  123  A    between atoms: _300  and  _301
REMARK  124  A    between atoms: _301  and  _302
REMARK  125  A    between atoms: _302  and  _303
REMARK  126  A    between atoms: _312  and  _314
REMARK  127  A    between atoms: _314  and  _315
REMARK  128  A    between atoms: _314  and  _317
REMARK  129  A    between atoms: _317  and  _318
REMARK  130  A    between atoms: _321  and  _323
REMARK  131  A    between atoms: _323  and  _324
REMARK  132  A    between atoms: _323  and  _326
REMARK  133  A    between atoms: _326  and  _327
REMARK  134  A    between atoms: _330  and  _332
REMARK  135  A    between atoms: _332  and  _333
REMARK  136  A    between atoms: _332  and  _335
REMARK  137  A    between atoms: _335  and  _336
REMARK  138  A    between atoms: _339  and  _341
REMARK  139  A    between atoms: _341  and  _342
REMARK  140  A    between atoms: _341  and  _344
REMARK  141  A    between atoms: _344  and  _345
REMARK  142  A    between atoms: _348  and  _350
REMARK  143  A    between atoms: _350  and  _351
REMARK  144  A    between atoms: _353  and  _355
REMARK  145  A    between atoms: _355  and  _356
REMARK  146  A    between atoms: _359  and  _361
REMARK  147  A    between atoms: _361  and  _362
REMARK  148  A    between atoms: _361  and  _364
REMARK  149  A    between atoms: _364  and  _365
REMARK  150  A    between atoms: _368  and  _370
REMARK  151  A    between atoms: _370  and  _371
REMARK  152  A    between atoms: _370  and  _373
REMARK  153  A    between atoms: _373  and  _374
REMARK  154  A    between atoms: _377  and  _379
REMARK  155  A    between atoms: _379  and  _380
REMARK  156  A    between atoms: _379  and  _382
REMARK  157  A    between atoms: _382  and  _383
REMARK  158  A    between atoms: _386  and  _388
REMARK  159  A    between atoms: _388  and  _389
REMARK  160  A    between atoms: _388  and  _391
REMARK  161  A    between atoms: _394  and  _396
REMARK  162  A    between atoms: _396  and  _397
REMARK  163  A    between atoms: _396  and  _399
REMARK  164  A    between atoms: _399  and  _400
REMARK  165  A    between atoms: _403  and  _405
REMARK  166  A    between atoms: _405  and  _406
REMARK  167  A    between atoms: _405  and  _408
REMARK  168  A    between atoms: _408  and  _409
REMARK  169  A    between atoms: _409  and  _410
REMARK  170  A    between atoms: _410  and  _411
REMARK  171  A    between atoms: _411  and  _412
REMARK  172  A    between atoms: _416  and  _418
REMARK  173  A    between atoms: _418  and  _419
REMARK  174  A    between atoms: _418  and  _421
REMARK  175  A    between atoms: _421  and  _422
REMARK  176  A    between atoms: _425  and  _427
REMARK  177  A    between atoms: _427  and  _428
REMARK  178  A    between atoms: _427  and  _430
REMARK  179  A    between atoms: _430  and  _431
REMARK  180  A    between atoms: _434  and  _436
REMARK  181  A    between atoms: _436  and  _437
REMARK  182  A    between atoms: _439  and  _441
REMARK  183  A    between atoms: _441  and  _442
REMARK  184  A    between atoms: _441  and  _444
REMARK  185  A    between atoms: _444  and  _445
REMARK  186  A    between atoms: _448  and  _450
REMARK  187  A    between atoms: _450  and  _451
REMARK  188  A    between atoms: _453  and  _455
REMARK  189  A    between atoms: _455  and  _456
REMARK  190  A    between atoms: _458  and  _460
REMARK  191  A    between atoms: _460  and  _461
REMARK  192  A    between atoms: _460  and  _463
REMARK  193  A    between atoms: _463  and  _464
REMARK  194  A    between atoms: _467  and  _469
REMARK  195  A    between atoms: _469  and  _470
REMARK  196  A    between atoms: _469  and  _472
REMARK  197  A    between atoms: _475  and  _477
REMARK  198  A    between atoms: _477  and  _478
REMARK  199  A    between atoms: _477  and  _480
REMARK  200  A    between atoms: _480  and  _481
REMARK  201  A    between atoms: _485  and  _486
REMARK  202  A    between atoms: _491  and  _493
REMARK  203  A    between atoms: _493  and  _494
REMARK  204  A    between atoms: _493  and  _496
REMARK  205  A    between atoms: _496  and  _497
REMARK  206  A    between atoms: _501  and  _502
REMARK  207  A    between atoms: _507  and  _509
REMARK  208  A    between atoms: _509  and  _510
REMARK  209  A    between atoms: _509  and  _512
REMARK  210  A    between atoms: _515  and  _517
REMARK  211  A    between atoms: _517  and  _518
REMARK  212  A    between atoms: _517  and  _520
REMARK  213  A    between atoms: _520  and  _521
REMARK  214  A    between atoms: _526  and  _528
REMARK  215  A    between atoms: _528  and  _529
REMARK  216  A    between atoms: _528  and  _531
REMARK  217  A    between atoms: _531  and  _532
REMARK  218  A    between atoms: _535  and  _537
REMARK  219  A    between atoms: _537  and  _538
REMARK  220  A    between atoms: _537  and  _540
REMARK  221  A    between atoms: _540  and  _541
REMARK  222  A    between atoms: _544  and  _546
REMARK  223  A    between atoms: _546  and  _547
REMARK  224  A    between atoms: _549  and  _551
REMARK  225  A    between atoms: _551  and  _552
REMARK  226  A    between atoms: _551  and  _554
REMARK  227  A    between atoms: _554  and  _555
REMARK  228  A    between atoms: _555  and  _556
REMARK  229  A    between atoms: _556  and  _557
REMARK                            x       y       z     vdW  Elec       q    Type
REMARK                         _______ _______ _______ _____ _____    ______ ____
ROOT
ATOM      1  O   HOH     1      12.242  -4.370   3.928  0.00  0.00    +0.000 OA
ENDROOT
TORSDOF 0
REMARK  Name = ../refined-set-2016/4qgi/4qgi_pocket.pdb
REMARK  229 active torsions:
REMARK  status: ('A' for Active; 'I' for Inactive)
REMARK    1  A    between atoms: _1  and  _3
REMARK    2  A    between atoms: _3  and  _4
REMARK    3  A    between atoms: _3  and  _6
REMARK    4  A    between atoms: _6  and  _7
REMARK    5  A    between atoms: _7  and  _8
REMARK    6  A    between atoms: _8  and  _9
REMARK    7  A    between atoms: _18  and  _20
REMARK    8  A    between atoms: _20  and  _21
REMARK    9  A    between atoms: _20  and  _23
REMARK   10  A    between atoms: _23  and  _24
REMARK   11  A    between atoms: _27  and  _29
REMARK   12  A    between atoms: _29  and  _30
REMARK   13  A    between atoms: _29  and  _32
REMARK   14  A    between atoms: _32  and  _33
REMARK   15  A    between atoms: _36  and  _38
REMARK   16  A    between atoms: _38  and  _39
REMARK   17  A    between atoms: _38  and  _41
REMARK   18  A    between atoms: _41  and  _42
REMARK   19  A    between atoms: _45  and  _47
REMARK   20  A    between atoms: _47  and  _48
REMARK   21  A    between atoms: _47  and  _50
REMARK   22  A    between atoms: _50  and  _51
REMARK   23  A    between atoms: _54  and  _56
REMARK   24  A    between atoms: _56  and  _57
REMARK   25  A    between atoms: _59  and  _61
REMARK   26  A    between atoms: _61  and  _62
REMARK   27  A    between atoms: _65  and  _67
REMARK   28  A    between atoms: _67  and  _68
REMARK   29  A    between atoms: _67  and  _70
REMARK   30  A    between atoms: _70  and  _71
REMARK   31  A    between atoms: _74  and  _76
REMARK   32  A    between atoms: _76  and  _77
REMARK   33  A    between atoms: _76  and  _79
REMARK   34  A    between atoms: _79  and  _80
REMARK   35  A    between atoms: _83  and  _85
REMARK   36  A    between atoms: _85  and  _86
REMARK   37  A    between atoms: _85  and  _88
REMARK   38  A    between atoms: _88  and  _89
REMARK   39  A    between atoms: _92  and  _94
REMARK   40  A    between atoms: _94  and  _95
REMARK   41  A    between atoms: _94  and  _97
REMARK   42  A    between atoms: _100  and  _102
REMARK   43  A    between atoms: _102  and  _103
REMARK   44  A    between atoms: _102  and  _105
REMARK   45  A    between atoms: _105  and  _106
REMARK   46  A    between atoms: _106  and  _107
REMARK   47  A    between atoms: _107  and  _108
REMARK   48  A    between atoms: _108  and  _109
REMARK   49  A    between atoms: _113  and  _115
REMARK   50  A    between atoms: _115  and  _116
REMARK   51  A    between atoms: _115  and  _118
REMARK   52  A    between atoms: _118  and  _119
REMARK   53  A    between atoms: _119  and  _120
REMARK   54  A    between atoms: _122  and  _124
REMARK   55  A    between atoms: _124  and  _125
REMARK   56  A    between atoms: _124  and  _127
REMARK   57  A    between atoms: _127  and  _128
REMARK   58  A    between atoms: _131  and  _133
REMARK   59  A    between atoms: _133  and  _134
REMARK   60  A    between atoms: _133  and  _136
REMARK   61  A    between atoms: _136  and  _137
REMARK   62  A    between atoms: _140  and  _142
REMARK   63  A    between atoms: _142  and  _143
REMARK   64  A    between atoms: _145  and  _147
REMARK   65  A    between atoms: _147  and  _148
REMARK   66  A    between atoms: _147  and  _150
REMARK   67  A    between atoms: _150  and  _151
REMARK   68  A    between atoms: _154  and  _156
REMARK   69  A    between atoms: _156  and  _157
REMARK   70  A    between atoms: _159  and  _161
REMARK   71  A    between atoms: _161  and  _162
REMARK   72  A    between atoms: _164  and  _166
REMARK   73  A    between atoms: _166  and  _167
REMARK   74  A    between atoms: _166  and  _169
REMARK   75  A    between atoms: _169  and  _170
REMARK   76  A    between atoms: _176  and  _178
REMARK   77  A    between atoms: _178  and  _179
REMARK   78  A    between atoms: _178  and  _181
REMARK   79  A    between atoms: _181  and  _182
REMARK   80  A    between atoms: _185  and  _187
REMARK   81  A    between atoms: _187  and  _188
REMARK   82  A    between atoms: _187  and  _190
REMARK   83  A    between atoms: _193  and  _195
REMARK   84  A    between atoms: _195  and  _196
REMARK   85  A    between atoms: _195  and  _198
REMARK   86  A    between atoms: _198  and  _199
REMARK   87  A    between atoms: _203  and  _204
REMARK   88  A    between atoms: _209  and  _211
REMARK   89  A    between atoms: _211  and  _212
REMARK   90  A    between atoms: _211  and  _214
REMARK   91  A    between atoms: _214  and  _215
REMARK   92  A    between atoms: _219  and  _220
REMARK   93  A    between atoms: _225  and  _227
REMARK   94  A    between atoms: _227  and  _228
REMARK   95  A    between atoms: _227  and  _230
REMARK   96  A    between atoms: _233  and  _235
REMARK   97  A    between atoms: _235  and  _236
REMARK   98  A    between atoms: _235  and  _238
REMARK   99  A    between atoms: _238  and  _239
REMARK  100  A    between atoms: _244  and  _246
REMARK  101  A    between atoms: _246  and  _247
REMARK  102  A    between atoms: _246  and  _249
REMARK  103  A    between atoms: _249  and  _250
REMARK  104  A    between atoms: _253  and  _255
REMARK  105  A    between atoms: _255  and  _256
REMARK  106  A    between atoms: _255  and  _258
REMARK  107  A    between atoms: _258  and  _259
REMARK  108  A    between atoms: _262  and  _264
REMARK  109  A    between atoms: _264  and  _265
REMARK  110  A    between atoms: _267  and  _269
REMARK  111  A    between atoms: _269  and  _270
REMARK  112  A    between atoms: _269  and  _272
REMARK  113  A    between atoms: _272  and  _273
REMARK  114  A    between atoms: _273  and  _274
REMARK  115  A    between atoms: _274  and  _275
REMARK  116  A    between atoms: _284  and  _286
REMARK  117  A    between atoms: _286  and  _287
REMARK  118  A    between atoms: _286  and  _289
REMARK  119  A    between atoms: _289  and  _290
REMARK  120  A    between atoms: _295  and  _297
REMARK  121  A    between atoms: _297  and  _298
REMARK  122  A    between atoms: _297  and  _300
REMARK  123  A    between atoms: _300  and  _301
REMARK  124  A    between atoms: _301  and  _302
REMARK  125  A    between atoms: _302  and  _303
REMARK  126  A    between atoms: _312  and  _314
REMARK  127  A    between atoms: _314  and  _315
REMARK  128  A    between atoms: _314  and  _317
REMARK  129  A    between atoms: _317  and  _318
REMARK  130  A    between atoms: _321  and  _323
REMARK  131  A    between atoms: _323  and  _324
REMARK  132  A    between atoms: _323  and  _326
REMARK  133  A    between atoms: _326  and  _327
REMARK  134  A    between atoms: _330  and  _332
REMARK  135  A    between atoms: _332  and  _333
REMARK  136  A    between atoms: _332  and  _335
REMARK  137  A    between atoms: _335  and  _336
REMARK  138  A    between atoms: _339  and  _341
REMARK  139  A    between atoms: _341  and  _342
REMARK  140  A    between atoms: _341  and  _344
REMARK  141  A    between atoms: _344  and  _345
REMARK  142  A    between atoms: _348  and  _350
REMARK  143  A    between atoms: _350  and  _351
REMARK  144  A    between atoms: _353  and  _355
REMARK  145  A    between atoms: _355  and  _356
REMARK  146  A    between atoms: _359  and  _361
REMARK  147  A    between atoms: _361  and  _362
REMARK  148  A    between atoms: _361  and  _364
REMARK  149  A    between atoms: _364  and  _365
REMARK  150  A    between atoms: _368  and  _370
REMARK  151  A    between atoms: _370  and  _371
REMARK  152  A    between atoms: _370  and  _373
REMARK  153  A    between atoms: _373  and  _374
REMARK  154  A    between atoms: _377  and  _379
REMARK  155  A    between atoms: _379  and  _380
REMARK  156  A    between atoms: _379  and  _382
REMARK  157  A    between atoms: _382  and  _383
REMARK  158  A    between atoms: _386  and  _388
REMARK  159  A    between atoms: _388  and  _389
REMARK  160  A    between atoms: _388  and  _391
REMARK  161  A    between atoms: _394  and  _396
REMARK  162  A    between atoms: _396  and  _397
REMARK  163  A    between atoms: _396  and  _399
REMARK  164  A    between atoms: _399  and  _400
REMARK  165  A    between atoms: _403  and  _405
REMARK  166  A    between atoms: _405  and  _406
REMARK  167  A    between atoms: _405  and  _408
REMARK  168  A    between atoms: _408  and  _409
REMARK  169  A    between atoms: _409  and  _410
REMARK  170  A    between atoms: _410  and  _411
REMARK  171  A    between atoms: _411  and  _412
REMARK  172  A    between atoms: _416  and  _418
REMARK  173  A    between atoms: _418  and  _419
REMARK  174  A    between atoms: _418  and  _421
REMARK  175  A    between atoms: _421  and  _422
REMARK  176  A    between atoms: _425  and  _427
REMARK  177  A    between atoms: _427  and  _428
REMARK  178  A    between atoms: _427  and  _430
REMARK  179  A    between atoms: _430  and  _431
REMARK  180  A    between atoms: _434  and  _436
REMARK  181  A    between atoms: _436  and  _437
REMARK  182  A    between atoms: _439  and  _441
REMARK  183  A    between atoms: _441  and  _442
REMARK  184  A    between atoms: _441  and  _444
REMARK  185  A    between atoms: _444  and  _445
REMARK  186  A    between atoms: _448  and  _450
REMARK  187  A    between atoms: _450  and  _451
REMARK  188  A    between atoms: _453  and  _455
REMARK  189  A    between atoms: _455  and  _456
REMARK  190  A    between atoms: _458  and  _460
REMARK  191  A    between atoms: _460  and  _461
REMARK  192  A    between atoms: _460  and  _463
REMARK  193  A    between atoms: _463  and  _464
REMARK  194  A    between atoms: _467  and  _469
REMARK  195  A    between atoms: _469  and  _470
REMARK  196  A    between atoms: _469  and  _472
REMARK  197  A    between atoms: _475  and  _477
REMARK  198  A    between atoms: _477  and  _478
REMARK  199  A    between atoms: _477  and  _480
REMARK  200  A    between atoms: _480  and  _481
REMARK  201  A    between atoms: _485  and  _486
REMARK  202  A    between atoms: _491  and  _493
REMARK  203  A    between atoms: _493  and  _494
REMARK  204  A    between atoms: _493  and  _496
REMARK  205  A    between atoms: _496  and  _497
REMARK  206  A    between atoms: _501  and  _502
REMARK  207  A    between atoms: _507  and  _509
REMARK  208  A    between atoms: _509  and  _510
REMARK  209  A    between atoms: _509  and  _512
REMARK  210  A    between atoms: _515  and  _517
REMARK  211  A    between atoms: _517  and  _518
REMARK  212  A    between atoms: _517  and  _520
REMARK  213  A    between atoms: _520  and  _521
REMARK  214  A    between atoms: _526  and  _528
REMARK  215  A    between atoms: _528  and  _529
REMARK  216  A    between atoms: _528  and  _531
REMARK  217  A    between atoms: _531  and  _532
REMARK  218  A    between atoms: _535  and  _537
REMARK  219  A    between atoms: _537  and  _538
REMARK  220  A    between atoms: _537  and  _540
REMARK  221  A    between atoms: _540  and  _541
REMARK  222  A    between atoms: _544  and  _546
REMARK  223  A    between atoms: _546  and  _547
REMARK  224  A    between atoms: _549  and  _551
REMARK  225  A    between atoms: _551  and  _552
REMARK  226  A    between atoms: _551  and  _554
REMARK  227  A    between atoms: _554  and  _555
REMARK  228  A    between atoms: _555  and  _556
REMARK  229  A    between atoms: _556  and  _557
REMARK                            x       y       z     vdW  Elec       q    Type
REMARK                         _______ _______ _______ _____ _____    ______ ____
ROOT
ATOM      1  O   HOH     1       7.497  -1.197  -6.478  0.00  0.00    +0.000 OA
ENDROOT
TORSDOF 0
REMARK  Name = ../refined-set-2016/4qgi/4qgi_pocket.pdb
REMARK  229 active torsions:
REMARK  status: ('A' for Active; 'I' for Inactive)
REMARK    1  A    between atoms: _1  and  _3
REMARK    2  A    between atoms: _3  and  _4
REMARK    3  A    between atoms: _3  and  _6
REMARK    4  A    between atoms: _6  and  _7
REMARK    5  A    between atoms: _7  and  _8
REMARK    6  A    between atoms: _8  and  _9
REMARK    7  A    between atoms: _18  and  _20
REMARK    8  A    between atoms: _20  and  _21
REMARK    9  A    between atoms: _20  and  _23
REMARK   10  A    between atoms: _23  and  _24
REMARK   11  A    between atoms: _27  and  _29
REMARK   12  A    between atoms: _29  and  _30
REMARK   13  A    between atoms: _29  and  _32
REMARK   14  A    between atoms: _32  and  _33
REMARK   15  A    between atoms: _36  and  _38
REMARK   16  A    between atoms: _38  and  _39
REMARK   17  A    between atoms: _38  and  _41
REMARK   18  A    between atoms: _41  and  _42
REMARK   19  A    between atoms: _45  and  _47
REMARK   20  A    between atoms: _47  and  _48
REMARK   21  A    between atoms: _47  and  _50
REMARK   22  A    between atoms: _50  and  _51
REMARK   23  A    between atoms: _54  and  _56
REMARK   24  A    between atoms: _56  and  _57
REMARK   25  A    between atoms: _59  and  _61
REMARK   26  A    between atoms: _61  and  _62
REMARK   27  A    between atoms: _65  and  _67
REMARK   28  A    between atoms: _67  and  _68
REMARK   29  A    between atoms: _67  and  _70
REMARK   30  A    between atoms: _70  and  _71
REMARK   31  A    between atoms: _74  and  _76
REMARK   32  A    between atoms: _76  and  _77
REMARK   33  A    between atoms: _76  and  _79
REMARK   34  A    between atoms: _79  and  _80
REMARK   35  A    between atoms: _83  and  _85
REMARK   36  A    between atoms: _85  and  _86
REMARK   37  A    between atoms: _85  and  _88
REMARK   38  A    between atoms: _88  and  _89
REMARK   39  A    between atoms: _92  and  _94
REMARK   40  A    between atoms: _94  and  _95
REMARK   41  A    between atoms: _94  and  _97
REMARK   42  A    between atoms: _100  and  _102
REMARK   43  A    between atoms: _102  and  _103
REMARK   44  A    between atoms: _102  and  _105
REMARK   45  A    between atoms: _105  and  _106
REMARK   46  A    between atoms: _106  and  _107
REMARK   47  A    between atoms: _107  and  _108
REMARK   48  A    between atoms: _108  and  _109
REMARK   49  A    between atoms: _113  and  _115
REMARK   50  A    between atoms: _115  and  _116
REMARK   51  A    between atoms: _115  and  _118
REMARK   52  A    between atoms: _118  and  _119
REMARK   53  A    between atoms: _119  and  _120
REMARK   54  A    between atoms: _122  and  _124
REMARK   55  A    between atoms: _124  and  _125
REMARK   56  A    between atoms: _124  and  _127
REMARK   57  A    between atoms: _127  and  _128
REMARK   58  A    between atoms: _131  and  _133
REMARK   59  A    between atoms: _133  and  _134
REMARK   60  A    between atoms: _133  and  _136
REMARK   61  A    between atoms: _136  and  _137
REMARK   62  A    between atoms: _140  and  _142
REMARK   63  A    between atoms: _142  and  _143
REMARK   64  A    between atoms: _145  and  _147
REMARK   65  A    between atoms: _147  and  _148
REMARK   66  A    between atoms: _147  and  _150
REMARK   67  A    between atoms: _150  and  _151
REMARK   68  A    between atoms: _154  and  _156
REMARK   69  A    between atoms: _156  and  _157
REMARK   70  A    between atoms: _159  and  _161
REMARK   71  A    between atoms: _161  and  _162
REMARK   72  A    between atoms: _164  and  _166
REMARK   73  A    between atoms: _166  and  _167
REMARK   74  A    between atoms: _166  and  _169
REMARK   75  A    between atoms: _169  and  _170
REMARK   76  A    between atoms: _176  and  _178
REMARK   77  A    between atoms: _178  and  _179
REMARK   78  A    between atoms: _178  and  _181
REMARK   79  A    between atoms: _181  and  _182
REMARK   80  A    between atoms: _185  and  _187
REMARK   81  A    between atoms: _187  and  _188
REMARK   82  A    between atoms: _187  and  _190
REMARK   83  A    between atoms: _193  and  _195
REMARK   84  A    between atoms: _195  and  _196
REMARK   85  A    between atoms: _195  and  _198
REMARK   86  A    between atoms: _198  and  _199
REMARK   87  A    between atoms: _203  and  _204
REMARK   88  A    between atoms: _209  and  _211
REMARK   89  A    between atoms: _211  and  _212
REMARK   90  A    between atoms: _211  and  _214
REMARK   91  A    between atoms: _214  and  _215
REMARK   92  A    between atoms: _219  and  _220
REMARK   93  A    between atoms: _225  and  _227
REMARK   94  A    between atoms: _227  and  _228
REMARK   95  A    between atoms: _227  and  _230
REMARK   96  A    between atoms: _233  and  _235
REMARK   97  A    between atoms: _235  and  _236
REMARK   98  A    between atoms: _235  and  _238
REMARK   99  A    between atoms: _238  and  _239
REMARK  100  A    between atoms: _244  and  _246
REMARK  101  A    between atoms: _246  and  _247
REMARK  102  A    between atoms: _246  and  _249
REMARK  103  A    between atoms: _249  and  _250
REMARK  104  A    between atoms: _253  and  _255
REMARK  105  A    between atoms: _255  and  _256
REMARK  106  A    between atoms: _255  and  _258
REMARK  107  A    between atoms: _258  and  _259
REMARK  108  A    between atoms: _262  and  _264
REMARK  109  A    between atoms: _264  and  _265
REMARK  110  A    between atoms: _267  and  _269
REMARK  111  A    between atoms: _269  and  _270
REMARK  112  A    between atoms: _269  and  _272
REMARK  113  A    between atoms: _272  and  _273
REMARK  114  A    between atoms: _273  and  _274
REMARK  115  A    between atoms: _274  and  _275
REMARK  116  A    between atoms: _284  and  _286
REMARK  117  A    between atoms: _286  and  _287
REMARK  118  A    between atoms: _286  and  _289
REMARK  119  A    between atoms: _289  and  _290
REMARK  120  A    between atoms: _295  and  _297
REMARK  121  A    between atoms: _297  and  _298
REMARK  122  A    between atoms: _297  and  _300
REMARK  123  A    between atoms: _300  and  _301
REMARK  124  A    between atoms: _301  and  _302
REMARK  125  A    between atoms: _302  and  _303
REMARK  126  A    between atoms: _312  and  _314
REMARK  127  A    between atoms: _314  and  _315
REMARK  128  A    between atoms: _314  and  _317
REMARK  129  A    between atoms: _317  and  _318
REMARK  130  A    between atoms: _321  and  _323
REMARK  131  A    between atoms: _323  and  _324
REMARK  132  A    between atoms: _323  and  _326
REMARK  133  A    between atoms: _326  and  _327
REMARK  134  A    between atoms: _330  and  _332
REMARK  135  A    between atoms: _332  and  _333
REMARK  136  A    between atoms: _332  and  _335
REMARK  137  A    between atoms: _335  and  _336
REMARK  138  A    between atoms: _339  and  _341
REMARK  139  A    between atoms: _341  and  _342
REMARK  140  A    between atoms: _341  and  _344
REMARK  141  A    between atoms: _344  and  _345
REMARK  142  A    between atoms: _348  and  _350
REMARK  143  A    between atoms: _350  and  _351
REMARK  144  A    between atoms: _353  and  _355
REMARK  145  A    between atoms: _355  and  _356
REMARK  146  A    between atoms: _359  and  _361
REMARK  147  A    between atoms: _361  and  _362
REMARK  148  A    between atoms: _361  and  _364
REMARK  149  A    between atoms: _364  and  _365
REMARK  150  A    between atoms: _368  and  _370
REMARK  151  A    between atoms: _370  and  _371
REMARK  152  A    between atoms: _370  and  _373
REMARK  153  A    between atoms: _373  and  _374
REMARK  154  A    between atoms: _377  and  _379
REMARK  155  A    between atoms: _379  and  _380
REMARK  156  A    between atoms: _379  and  _382
REMARK  157  A    between atoms: _382  and  _383
REMARK  158  A    between atoms: _386  and  _388
REMARK  159  A    between atoms: _388  and  _389
REMARK  160  A    between atoms: _388  and  _391
REMARK  161  A    between atoms: _394  and  _396
REMARK  162  A    between atoms: _396  and  _397
REMARK  163  A    between atoms: _396  and  _399
REMARK  164  A    between atoms: _399  and  _400
REMARK  165  A    between atoms: _403  and  _405
REMARK  166  A    between atoms: _405  and  _406
REMARK  167  A    between atoms: _405  and  _408
REMARK  168  A    between atoms: _408  and  _409
REMARK  169  A    between atoms: _409  and  _410
REMARK  170  A    between atoms: _410  and  _411
REMARK  171  A    between atoms: _411  and  _412
REMARK  172  A    between atoms: _416  and  _418
REMARK  173  A    between atoms: _418  and  _419
REMARK  174  A    between atoms: _418  and  _421
REMARK  175  A    between atoms: _421  and  _422
REMARK  176  A    between atoms: _425  and  _427
REMARK  177  A    between atoms: _427  and  _428
REMARK  178  A    between atoms: _427  and  _430
REMARK  179  A    between atoms: _430  and  _431
REMARK  180  A    between atoms: _434  and  _436
REMARK  181  A    between atoms: _436  and  _437
REMARK  182  A    between atoms: _439  and  _441
REMARK  183  A    between atoms: _441  and  _442
REMARK  184  A    between atoms: _441  and  _444
REMARK  185  A    between atoms: _444  and  _445
REMARK  186  A    between atoms: _448  and  _450
REMARK  187  A    between atoms: _450  and  _451
REMARK  188  A    between atoms: _453  and  _455
REMARK  189  A    between atoms: _455  and  _456
REMARK  190  A    between atoms: _458  and  _460
REMARK  191  A    between atoms: _460  and  _461
REMARK  192  A    between atoms: _460  and  _463
REMARK  193  A    between atoms: _463  and  _464
REMARK  194  A    between atoms: _467  and  _469
REMARK  195  A    between atoms: _469  and  _470
REMARK  196  A    between atoms: _469  and  _472
REMARK  197  A    between atoms: _475  and  _477
REMARK  198  A    between atoms: _477  and  _478
REMARK  199  A    between atoms: _477  and  _480
REMARK  200  A    between atoms: _480  and  _481
REMARK  201  A    between atoms: _485  and  _486
REMARK  202  A    between atoms: _491  and  _493
REMARK  203  A    between atoms: _493  and  _494
REMARK  204  A    between atoms: _493  and  _496
REMARK  205  A    between atoms: _496  and  _497
REMARK  206  A    between atoms: _501  and  _502
REMARK  207  A    between atoms: _507  and  _509
REMARK  208  A    between atoms: _509  and  _510
REMARK  209  A    between atoms: _509  and  _512
REMARK  210  A    between atoms: _515  and  _517
REMARK  211  A    between atoms: _517  and  _518
REMARK  212  A    between atoms: _517  and  _520
REMARK  213  A    between atoms: _520  and  _521
REMARK  214  A    between atoms: _526  and  _528
REMARK  215  A    between atoms: _528  and  _529
REMARK  216  A    between atoms: _528  and  _531
REMARK  217  A    between atoms: _531  and  _532
REMARK  218  A    between atoms: _535  and  _537
REMARK  219  A    between atoms: _537  and  _538
REMARK  220  A    between atoms: _537  and  _540
REMARK  221  A    between atoms: _540  and  _541
REMARK  222  A    between atoms: _544  and  _546
REMARK  223  A    between atoms: _546  and  _547
REMARK  224  A    between atoms: _549  and  _551
REMARK  225  A    between atoms: _551  and  _552
REMARK  226  A    between atoms: _551  and  _554
REMARK  227  A    between atoms: _554  and  _555
REMARK  228  A    between atoms: _555  and  _556
REMARK  229  A    between atoms: _556  and  _557
REMARK                            x       y       z     vdW  Elec       q    Type
REMARK                         _______ _______ _______ _____ _____    ______ ____
ROOT
ATOM      1  O   HOH     1       5.699  -7.051  -0.927  0.00  0.00    +0.000 OA
ENDROOT
TORSDOF 0
REMARK  Name = ../refined-set-2016/4qgi/4qgi_pocket.pdb
REMARK  229 active torsions:
REMARK  status: ('A' for Active; 'I' for Inactive)
REMARK    1  A    between atoms: _1  and  _3
REMARK    2  A    between atoms: _3  and  _4
REMARK    3  A    between atoms: _3  and  _6
REMARK    4  A    between atoms: _6  and  _7
REMARK    5  A    between atoms: _7  and  _8
REMARK    6  A    between atoms: _8  and  _9
REMARK    7  A    between atoms: _18  and  _20
REMARK    8  A    between atoms: _20  and  _21
REMARK    9  A    between atoms: _20  and  _23
REMARK   10  A    between atoms: _23  and  _24
REMARK   11  A    between atoms: _27  and  _29
REMARK   12  A    between atoms: _29  and  _30
REMARK   13  A    between atoms: _29  and  _32
REMARK   14  A    between atoms: _32  and  _33
REMARK   15  A    between atoms: _36  and  _38
REMARK   16  A    between atoms: _38  and  _39
REMARK   17  A    between atoms: _38  and  _41
REMARK   18  A    between atoms: _41  and  _42
REMARK   19  A    between atoms: _45  and  _47
REMARK   20  A    between atoms: _47  and  _48
REMARK   21  A    between atoms: _47  and  _50
REMARK   22  A    between atoms: _50  and  _51
REMARK   23  A    between atoms: _54  and  _56
REMARK   24  A    between atoms: _56  and  _57
REMARK   25  A    between atoms: _59  and  _61
REMARK   26  A    between atoms: _61  and  _62
REMARK   27  A    between atoms: _65  and  _67
REMARK   28  A    between atoms: _67  and  _68
REMARK   29  A    between atoms: _67  and  _70
REMARK   30  A    between atoms: _70  and  _71
REMARK   31  A    between atoms: _74  and  _76
REMARK   32  A    between atoms: _76  and  _77
REMARK   33  A    between atoms: _76  and  _79
REMARK   34  A    between atoms: _79  and  _80
REMARK   35  A    between atoms: _83  and  _85
REMARK   36  A    between atoms: _85  and  _86
REMARK   37  A    between atoms: _85  and  _88
REMARK   38  A    between atoms: _88  and  _89
REMARK   39  A    between atoms: _92  and  _94
REMARK   40  A    between atoms: _94  and  _95
REMARK   41  A    between atoms: _94  and  _97
REMARK   42  A    between atoms: _100  and  _102
REMARK   43  A    between atoms: _102  and  _103
REMARK   44  A    between atoms: _102  and  _105
REMARK   45  A    between atoms: _105  and  _106
REMARK   46  A    between atoms: _106  and  _107
REMARK   47  A    between atoms: _107  and  _108
REMARK   48  A    between atoms: _108  and  _109
REMARK   49  A    between atoms: _113  and  _115
REMARK   50  A    between atoms: _115  and  _116
REMARK   51  A    between atoms: _115  and  _118
REMARK   52  A    between atoms: _118  and  _119
REMARK   53  A    between atoms: _119  and  _120
REMARK   54  A    between atoms: _122  and  _124
REMARK   55  A    between atoms: _124  and  _125
REMARK   56  A    between atoms: _124  and  _127
REMARK   57  A    between atoms: _127  and  _128
REMARK   58  A    between atoms: _131  and  _133
REMARK   59  A    between atoms: _133  and  _134
REMARK   60  A    between atoms: _133  and  _136
REMARK   61  A    between atoms: _136  and  _137
REMARK   62  A    between atoms: _140  and  _142
REMARK   63  A    between atoms: _142  and  _143
REMARK   64  A    between atoms: _145  and  _147
REMARK   65  A    between atoms: _147  and  _148
REMARK   66  A    between atoms: _147  and  _150
REMARK   67  A    between atoms: _150  and  _151
REMARK   68  A    between atoms: _154  and  _156
REMARK   69  A    between atoms: _156  and  _157
REMARK   70  A    between atoms: _159  and  _161
REMARK   71  A    between atoms: _161  and  _162
REMARK   72  A    between atoms: _164  and  _166
REMARK   73  A    between atoms: _166  and  _167
REMARK   74  A    between atoms: _166  and  _169
REMARK   75  A    between atoms: _169  and  _170
REMARK   76  A    between atoms: _176  and  _178
REMARK   77  A    between atoms: _178  and  _179
REMARK   78  A    between atoms: _178  and  _181
REMARK   79  A    between atoms: _181  and  _182
REMARK   80  A    between atoms: _185  and  _187
REMARK   81  A    between atoms: _187  and  _188
REMARK   82  A    between atoms: _187  and  _190
REMARK   83  A    between atoms: _193  and  _195
REMARK   84  A    between atoms: _195  and  _196
REMARK   85  A    between atoms: _195  and  _198
REMARK   86  A    between atoms: _198  and  _199
REMARK   87  A    between atoms: _203  and  _204
REMARK   88  A    between atoms: _209  and  _211
REMARK   89  A    between atoms: _211  and  _212
REMARK   90  A    between atoms: _211  and  _214
REMARK   91  A    between atoms: _214  and  _215
REMARK   92  A    between atoms: _219  and  _220
REMARK   93  A    between atoms: _225  and  _227
REMARK   94  A    between atoms: _227  and  _228
REMARK   95  A    between atoms: _227  and  _230
REMARK   96  A    between atoms: _233  and  _235
REMARK   97  A    between atoms: _235  and  _236
REMARK   98  A    between atoms: _235  and  _238
REMARK   99  A    between atoms: _238  and  _239
REMARK  100  A    between atoms: _244  and  _246
REMARK  101  A    between atoms: _246  and  _247
REMARK  102  A    between atoms: _246  and  _249
REMARK  103  A    between atoms: _249  and  _250
REMARK  104  A    between atoms: _253  and  _255
REMARK  105  A    between atoms: _255  and  _256
REMARK  106  A    between atoms: _255  and  _258
REMARK  107  A    between atoms: _258  and  _259
REMARK  108  A    between atoms: _262  and  _264
REMARK  109  A    between atoms: _264  and  _265
REMARK  110  A    between atoms: _267  and  _269
REMARK  111  A    between atoms: _269  and  _270
REMARK  112  A    between atoms: _269  and  _272
REMARK  113  A    between atoms: _272  and  _273
REMARK  114  A    between atoms: _273  and  _274
REMARK  115  A    between atoms: _274  and  _275
REMARK  116  A    between atoms: _284  and  _286
REMARK  117  A    between atoms: _286  and  _287
REMARK  118  A    between atoms: _286  and  _289
REMARK  119  A    between atoms: _289  and  _290
REMARK  120  A    between atoms: _295  and  _297
REMARK  121  A    between atoms: _297  and  _298
REMARK  122  A    between atoms: _297  and  _300
REMARK  123  A    between atoms: _300  and  _301
REMARK  124  A    between atoms: _301  and  _302
REMARK  125  A    between atoms: _302  and  _303
REMARK  126  A    between atoms: _312  and  _314
REMARK  127  A    between atoms: _314  and  _315
REMARK  128  A    between atoms: _314  and  _317
REMARK  129  A    between atoms: _317  and  _318
REMARK  130  A    between atoms: _321  and  _323
REMARK  131  A    between atoms: _323  and  _324
REMARK  132  A    between atoms: _323  and  _326
REMARK  133  A    between atoms: _326  and  _327
REMARK  134  A    between atoms: _330  and  _332
REMARK  135  A    between atoms: _332  and  _333
REMARK  136  A    between atoms: _332  and  _335
REMARK  137  A    between atoms: _335  and  _336
REMARK  138  A    between atoms: _339  and  _341
REMARK  139  A    between atoms: _341  and  _342
REMARK  140  A    between atoms: _341  and  _344
REMARK  141  A    between atoms: _344  and  _345
REMARK  142  A    between atoms: _348  and  _350
REMARK  143  A    between atoms: _350  and  _351
REMARK  144  A    between atoms: _353  and  _355
REMARK  145  A    between atoms: _355  and  _356
REMARK  146  A    between atoms: _359  and  _361
REMARK  147  A    between atoms: _361  and  _362
REMARK  148  A    between atoms: _361  and  _364
REMARK  149  A    between atoms: _364  and  _365
REMARK  150  A    between atoms: _368  and  _370
REMARK  151  A    between atoms: _370  and  _371
REMARK  152  A    between atoms: _370  and  _373
REMARK  153  A    between atoms: _373  and  _374
REMARK  154  A    between atoms: _377  and  _379
REMARK  155  A    between atoms: _379  and  _380
REMARK  156  A    between atoms: _379  and  _382
REMARK  157  A    between atoms: _382  and  _383
REMARK  158  A    between atoms: _386  and  _388
REMARK  159  A    between atoms: _388  and  _389
REMARK  160  A    between atoms: _388  and  _391
REMARK  161  A    between atoms: _394  and  _396
REMARK  162  A    between atoms: _396  and  _397
REMARK  163  A    between atoms: _396  and  _399
REMARK  164  A    between atoms: _399  and  _400
REMARK  165  A    between atoms: _403  and  _405
REMARK  166  A    between atoms: _405  and  _406
REMARK  167  A    between atoms: _405  and  _408
REMARK  168  A    between atoms: _408  and  _409
REMARK  169  A    between atoms: _409  and  _410
REMARK  170  A    between atoms: _410  and  _411
REMARK  171  A    between atoms: _411  and  _412
REMARK  172  A    between atoms: _416  and  _418
REMARK  173  A    between atoms: _418  and  _419
REMARK  174  A    between atoms: _418  and  _421
REMARK  175  A    between atoms: _421  and  _422
REMARK  176  A    between atoms: _425  and  _427
REMARK  177  A    between atoms: _427  and  _428
REMARK  178  A    between atoms: _427  and  _430
REMARK  179  A    between atoms: _430  and  _431
REMARK  180  A    between atoms: _434  and  _436
REMARK  181  A    between atoms: _436  and  _437
REMARK  182  A    between atoms: _439  and  _441
REMARK  183  A    between atoms: _441  and  _442
REMARK  184  A    between atoms: _441  and  _444
REMARK  185  A    between atoms: _444  and  _445
REMARK  186  A    between atoms: _448  and  _450
REMARK  187  A    between atoms: _450  and  _451
REMARK  188  A    between atoms: _453  and  _455
REMARK  189  A    between atoms: _455  and  _456
REMARK  190  A    between atoms: _458  and  _460
REMARK  191  A    between atoms: _460  and  _461
REMARK  192  A    between atoms: _460  and  _463
REMARK  193  A    between atoms: _463  and  _464
REMARK  194  A    between atoms: _467  and  _469
REMARK  195  A    between atoms: _469  and  _470
REMARK  196  A    between atoms: _469  and  _472
REMARK  197  A    between atoms: _475  and  _477
REMARK  198  A    between atoms: _477  and  _478
REMARK  199  A    between atoms: _477  and  _480
REMARK  200  A    between atoms: _480  and  _481
REMARK  201  A    between atoms: _485  and  _486
REMARK  202  A    between atoms: _491  and  _493
REMARK  203  A    between atoms: _493  and  _494
REMARK  204  A    between atoms: _493  and  _496
REMARK  205  A    between atoms: _496  and  _497
REMARK  206  A    between atoms: _501  and  _502
REMARK  207  A    between atoms: _507  and  _509
REMARK  208  A    between atoms: _509  and  _510
REMARK  209  A    between atoms: _509  and  _512
REMARK  210  A    between atoms: _515  and  _517
REMARK  211  A    between atoms: _517  and  _518
REMARK  212  A    between atoms: _517  and  _520
REMARK  213  A    between atoms: _520  and  _521
REMARK  214  A    between atoms: _526  and  _528
REMARK  215  A    between atoms: _528  and  _529
REMARK  216  A    between atoms: _528  and  _531
REMARK  217  A    between atoms: _531  and  _532
REMARK  218  A    between atoms: _535  and  _537
REMARK  219  A    between atoms: _537  and  _538
REMARK  220  A    between atoms: _537  and  _540
REMARK  221  A    between atoms: _540  and  _541
REMARK  222  A    between atoms: _544  and  _546
REMARK  223  A    between atoms: _546  and  _547
REMARK  224  A    between atoms: _549  and  _551
REMARK  225  A    between atoms: _551  and  _552
REMARK  226  A    between atoms: _551  and  _554
REMARK  227  A    between atoms: _554  and  _555
REMARK  228  A    between atoms: _555  and  _556
REMARK  229  A    between atoms: _556  and  _557
REMARK                            x       y       z     vdW  Elec       q    Type
REMARK                         _______ _______ _______ _____ _____    ______ ____
ROOT
ATOM      1  O   HOH     1      18.001 -15.199  -5.053  0.00  0.00    +0.000 OA
ENDROOT
TORSDOF 0
REMARK  Name = ../refined-set-2016/4qgi/4qgi_pocket.pdb
REMARK  229 active torsions:
REMARK  status: ('A' for Active; 'I' for Inactive)
REMARK    1  A    between atoms: _1  and  _3
REMARK    2  A    between atoms: _3  and  _4
REMARK    3  A    between atoms: _3  and  _6
REMARK    4  A    between atoms: _6  and  _7
REMARK    5  A    between atoms: _7  and  _8
REMARK    6  A    between atoms: _8  and  _9
REMARK    7  A    between atoms: _18  and  _20
REMARK    8  A    between atoms: _20  and  _21
REMARK    9  A    between atoms: _20  and  _23
REMARK   10  A    between atoms: _23  and  _24
REMARK   11  A    between atoms: _27  and  _29
REMARK   12  A    between atoms: _29  and  _30
REMARK   13  A    between atoms: _29  and  _32
REMARK   14  A    between atoms: _32  and  _33
REMARK   15  A    between atoms: _36  and  _38
REMARK   16  A    between atoms: _38  and  _39
REMARK   17  A    between atoms: _38  and  _41
REMARK   18  A    between atoms: _41  and  _42
REMARK   19  A    between atoms: _45  and  _47
REMARK   20  A    between atoms: _47  and  _48
REMARK   21  A    between atoms: _47  and  _50
REMARK   22  A    between atoms: _50  and  _51
REMARK   23  A    between atoms: _54  and  _56
REMARK   24  A    between atoms: _56  and  _57
REMARK   25  A    between atoms: _59  and  _61
REMARK   26  A    between atoms: _61  and  _62
REMARK   27  A    between atoms: _65  and  _67
REMARK   28  A    between atoms: _67  and  _68
REMARK   29  A    between atoms: _67  and  _70
REMARK   30  A    between atoms: _70  and  _71
REMARK   31  A    between atoms: _74  and  _76
REMARK   32  A    between atoms: _76  and  _77
REMARK   33  A    between atoms: _76  and  _79
REMARK   34  A    between atoms: _79  and  _80
REMARK   35  A    between atoms: _83  and  _85
REMARK   36  A    between atoms: _85  and  _86
REMARK   37  A    between atoms: _85  and  _88
REMARK   38  A    between atoms: _88  and  _89
REMARK   39  A    between atoms: _92  and  _94
REMARK   40  A    between atoms: _94  and  _95
REMARK   41  A    between atoms: _94  and  _97
REMARK   42  A    between atoms: _100  and  _102
REMARK   43  A    between atoms: _102  and  _103
REMARK   44  A    between atoms: _102  and  _105
REMARK   45  A    between atoms: _105  and  _106
REMARK   46  A    between atoms: _106  and  _107
REMARK   47  A    between atoms: _107  and  _108
REMARK   48  A    between atoms: _108  and  _109
REMARK   49  A    between atoms: _113  and  _115
REMARK   50  A    between atoms: _115  and  _116
REMARK   51  A    between atoms: _115  and  _118
REMARK   52  A    between atoms: _118  and  _119
REMARK   53  A    between atoms: _119  and  _120
REMARK   54  A    between atoms: _122  and  _124
REMARK   55  A    between atoms: _124  and  _125
REMARK   56  A    between atoms: _124  and  _127
REMARK   57  A    between atoms: _127  and  _128
REMARK   58  A    between atoms: _131  and  _133
REMARK   59  A    between atoms: _133  and  _134
REMARK   60  A    between atoms: _133  and  _136
REMARK   61  A    between atoms: _136  and  _137
REMARK   62  A    between atoms: _140  and  _142
REMARK   63  A    between atoms: _142  and  _143
REMARK   64  A    between atoms: _145  and  _147
REMARK   65  A    between atoms: _147  and  _148
REMARK   66  A    between atoms: _147  and  _150
REMARK   67  A    between atoms: _150  and  _151
REMARK   68  A    between atoms: _154  and  _156
REMARK   69  A    between atoms: _156  and  _157
REMARK   70  A    between atoms: _159  and  _161
REMARK   71  A    between atoms: _161  and  _162
REMARK   72  A    between atoms: _164  and  _166
REMARK   73  A    between atoms: _166  and  _167
REMARK   74  A    between atoms: _166  and  _169
REMARK   75  A    between atoms: _169  and  _170
REMARK   76  A    between atoms: _176  and  _178
REMARK   77  A    between atoms: _178  and  _179
REMARK   78  A    between atoms: _178  and  _181
REMARK   79  A    between atoms: _181  and  _182
REMARK   80  A    between atoms: _185  and  _187
REMARK   81  A    between atoms: _187  and  _188
REMARK   82  A    between atoms: _187  and  _190
REMARK   83  A    between atoms: _193  and  _195
REMARK   84  A    between atoms: _195  and  _196
REMARK   85  A    between atoms: _195  and  _198
REMARK   86  A    between atoms: _198  and  _199
REMARK   87  A    between atoms: _203  and  _204
REMARK   88  A    between atoms: _209  and  _211
REMARK   89  A    between atoms: _211  and  _212
REMARK   90  A    between atoms: _211  and  _214
REMARK   91  A    between atoms: _214  and  _215
REMARK   92  A    between atoms: _219  and  _220
REMARK   93  A    between atoms: _225  and  _227
REMARK   94  A    between atoms: _227  and  _228
REMARK   95  A    between atoms: _227  and  _230
REMARK   96  A    between atoms: _233  and  _235
REMARK   97  A    between atoms: _235  and  _236
REMARK   98  A    between atoms: _235  and  _238
REMARK   99  A    between atoms: _238  and  _239
REMARK  100  A    between atoms: _244  and  _246
REMARK  101  A    between atoms: _246  and  _247
REMARK  102  A    between atoms: _246  and  _249
REMARK  103  A    between atoms: _249  and  _250
REMARK  104  A    between atoms: _253  and  _255
REMARK  105  A    between atoms: _255  and  _256
REMARK  106  A    between atoms: _255  and  _258
REMARK  107  A    between atoms: _258  and  _259
REMARK  108  A    between atoms: _262  and  _264
REMARK  109  A    between atoms: _264  and  _265
REMARK  110  A    between atoms: _267  and  _269
REMARK  111  A    between atoms: _269  and  _270
REMARK  112  A    between atoms: _269  and  _272
REMARK  113  A    between atoms: _272  and  _273
REMARK  114  A    between atoms: _273  and  _274
REMARK  115  A    between atoms: _274  and  _275
REMARK  116  A    between atoms: _284  and  _286
REMARK  117  A    between atoms: _286  and  _287
REMARK  118  A    between atoms: _286  and  _289
REMARK  119  A    between atoms: _289  and  _290
REMARK  120  A    between atoms: _295  and  _297
REMARK  121  A    between atoms: _297  and  _298
REMARK  122  A    between atoms: _297  and  _300
REMARK  123  A    between atoms: _300  and  _301
REMARK  124  A    between atoms: _301  and  _302
REMARK  125  A    between atoms: _302  and  _303
REMARK  126  A    between atoms: _312  and  _314
REMARK  127  A    between atoms: _314  and  _315
REMARK  128  A    between atoms: _314  and  _317
REMARK  129  A    between atoms: _317  and  _318
REMARK  130  A    between atoms: _321  and  _323
REMARK  131  A    between atoms: _323  and  _324
REMARK  132  A    between atoms: _323  and  _326
REMARK  133  A    between atoms: _326  and  _327
REMARK  134  A    between atoms: _330  and  _332
REMARK  135  A    between atoms: _332  and  _333
REMARK  136  A    between atoms: _332  and  _335
REMARK  137  A    between atoms: _335  and  _336
REMARK  138  A    between atoms: _339  and  _341
REMARK  139  A    between atoms: _341  and  _342
REMARK  140  A    between atoms: _341  and  _344
REMARK  141  A    between atoms: _344  and  _345
REMARK  142  A    between atoms: _348  and  _350
REMARK  143  A    between atoms: _350  and  _351
REMARK  144  A    between atoms: _353  and  _355
REMARK  145  A    between atoms: _355  and  _356
REMARK  146  A    between atoms: _359  and  _361
REMARK  147  A    between atoms: _361  and  _362
REMARK  148  A    between atoms: _361  and  _364
REMARK  149  A    between atoms: _364  and  _365
REMARK  150  A    between atoms: _368  and  _370
REMARK  151  A    between atoms: _370  and  _371
REMARK  152  A    between atoms: _370  and  _373
REMARK  153  A    between atoms: _373  and  _374
REMARK  154  A    between atoms: _377  and  _379
REMARK  155  A    between atoms: _379  and  _380
REMARK  156  A    between atoms: _379  and  _382
REMARK  157  A    between atoms: _382  and  _383
REMARK  158  A    between atoms: _386  and  _388
REMARK  159  A    between atoms: _388  and  _389
REMARK  160  A    between atoms: _388  and  _391
REMARK  161  A    between atoms: _394  and  _396
REMARK  162  A    between atoms: _396  and  _397
REMARK  163  A    between atoms: _396  and  _399
REMARK  164  A    between atoms: _399  and  _400
REMARK  165  A    between atoms: _403  and  _405
REMARK  166  A    between atoms: _405  and  _406
REMARK  167  A    between atoms: _405  and  _408
REMARK  168  A    between atoms: _408  and  _409
REMARK  169  A    between atoms: _409  and  _410
REMARK  170  A    between atoms: _410  and  _411
REMARK  171  A    between atoms: _411  and  _412
REMARK  172  A    between atoms: _416  and  _418
REMARK  173  A    between atoms: _418  and  _419
REMARK  174  A    between atoms: _418  and  _421
REMARK  175  A    between atoms: _421  and  _422
REMARK  176  A    between atoms: _425  and  _427
REMARK  177  A    between atoms: _427  and  _428
REMARK  178  A    between atoms: _427  and  _430
REMARK  179  A    between atoms: _430  and  _431
REMARK  180  A    between atoms: _434  and  _436
REMARK  181  A    between atoms: _436  and  _437
REMARK  182  A    between atoms: _439  and  _441
REMARK  183  A    between atoms: _441  and  _442
REMARK  184  A    between atoms: _441  and  _444
REMARK  185  A    between atoms: _444  and  _445
REMARK  186  A    between atoms: _448  and  _450
REMARK  187  A    between atoms: _450  and  _451
REMARK  188  A    between atoms: _453  and  _455
REMARK  189  A    between atoms: _455  and  _456
REMARK  190  A    between atoms: _458  and  _460
REMARK  191  A    between atoms: _460  and  _461
REMARK  192  A    between atoms: _460  and  _463
REMARK  193  A    between atoms: _463  and  _464
REMARK  194  A    between atoms: _467  and  _469
REMARK  195  A    between atoms: _469  and  _470
REMARK  196  A    between atoms: _469  and  _472
REMARK  197  A    between atoms: _475  and  _477
REMARK  198  A    between atoms: _477  and  _478
REMARK  199  A    between atoms: _477  and  _480
REMARK  200  A    between atoms: _480  and  _481
REMARK  201  A    between atoms: _485  and  _486
REMARK  202  A    between atoms: _491  and  _493
REMARK  203  A    between atoms: _493  and  _494
REMARK  204  A    between atoms: _493  and  _496
REMARK  205  A    between atoms: _496  and  _497
REMARK  206  A    between atoms: _501  and  _502
REMARK  207  A    between atoms: _507  and  _509
REMARK  208  A    between atoms: _509  and  _510
REMARK  209  A    between atoms: _509  and  _512
REMARK  210  A    between atoms: _515  and  _517
REMARK  211  A    between atoms: _517  and  _518
REMARK  212  A    between atoms: _517  and  _520
REMARK  213  A    between atoms: _520  and  _521
REMARK  214  A    between atoms: _526  and  _528
REMARK  215  A    between atoms: _528  and  _529
REMARK  216  A    between atoms: _528  and  _531
REMARK  217  A    between atoms: _531  and  _532
REMARK  218  A    between atoms: _535  and  _537
REMARK  219  A    between atoms: _537  and  _538
REMARK  220  A    between atoms: _537  and  _540
REMARK  221  A    between atoms: _540  and  _541
REMARK  222  A    between atoms: _544  and  _546
REMARK  223  A    between atoms: _546  and  _547
REMARK  224  A    between atoms: _549  and  _551
REMARK  225  A    between atoms: _551  and  _552
REMARK  226  A    between atoms: _551  and  _554
REMARK  227  A    between atoms: _554  and  _555
REMARK  228  A    between atoms: _555  and  _556
REMARK  229  A    between atoms: _556  and  _557
REMARK                            x       y       z     vdW  Elec       q    Type
REMARK                         _______ _______ _______ _____ _____    ______ ____
ROOT
ATOM      1  O   HOH     1       9.545  -3.840   3.739  0.00  0.00    +0.000 OA
ENDROOT
TORSDOF 0
REMARK  Name = ../refined-set-2016/4qgi/4qgi_pocket.pdb
REMARK  229 active torsions:
REMARK  status: ('A' for Active; 'I' for Inactive)
REMARK    1  A    between atoms: _1  and  _3
REMARK    2  A    between atoms: _3  and  _4
REMARK    3  A    between atoms: _3  and  _6
REMARK    4  A    between atoms: _6  and  _7
REMARK    5  A    between atoms: _7  and  _8
REMARK    6  A    between atoms: _8  and  _9
REMARK    7  A    between atoms: _18  and  _20
REMARK    8  A    between atoms: _20  and  _21
REMARK    9  A    between atoms: _20  and  _23
REMARK   10  A    between atoms: _23  and  _24
REMARK   11  A    between atoms: _27  and  _29
REMARK   12  A    between atoms: _29  and  _30
REMARK   13  A    between atoms: _29  and  _32
REMARK   14  A    between atoms: _32  and  _33
REMARK   15  A    between atoms: _36  and  _38
REMARK   16  A    between atoms: _38  and  _39
REMARK   17  A    between atoms: _38  and  _41
REMARK   18  A    between atoms: _41  and  _42
REMARK   19  A    between atoms: _45  and  _47
REMARK   20  A    between atoms: _47  and  _48
REMARK   21  A    between atoms: _47  and  _50
REMARK   22  A    between atoms: _50  and  _51
REMARK   23  A    between atoms: _54  and  _56
REMARK   24  A    between atoms: _56  and  _57
REMARK   25  A    between atoms: _59  and  _61
REMARK   26  A    between atoms: _61  and  _62
REMARK   27  A    between atoms: _65  and  _67
REMARK   28  A    between atoms: _67  and  _68
REMARK   29  A    between atoms: _67  and  _70
REMARK   30  A    between atoms: _70  and  _71
REMARK   31  A    between atoms: _74  and  _76
REMARK   32  A    between atoms: _76  and  _77
REMARK   33  A    between atoms: _76  and  _79
REMARK   34  A    between atoms: _79  and  _80
REMARK   35  A    between atoms: _83  and  _85
REMARK   36  A    between atoms: _85  and  _86
REMARK   37  A    between atoms: _85  and  _88
REMARK   38  A    between atoms: _88  and  _89
REMARK   39  A    between atoms: _92  and  _94
REMARK   40  A    between atoms: _94  and  _95
REMARK   41  A    between atoms: _94  and  _97
REMARK   42  A    between atoms: _100  and  _102
REMARK   43  A    between atoms: _102  and  _103
REMARK   44  A    between atoms: _102  and  _105
REMARK   45  A    between atoms: _105  and  _106
REMARK   46  A    between atoms: _106  and  _107
REMARK   47  A    between atoms: _107  and  _108
REMARK   48  A    between atoms: _108  and  _109
REMARK   49  A    between atoms: _113  and  _115
REMARK   50  A    between atoms: _115  and  _116
REMARK   51  A    between atoms: _115  and  _118
REMARK   52  A    between atoms: _118  and  _119
REMARK   53  A    between atoms: _119  and  _120
REMARK   54  A    between atoms: _122  and  _124
REMARK   55  A    between atoms: _124  and  _125
REMARK   56  A    between atoms: _124  and  _127
REMARK   57  A    between atoms: _127  and  _128
REMARK   58  A    between atoms: _131  and  _133
REMARK   59  A    between atoms: _133  and  _134
REMARK   60  A    between atoms: _133  and  _136
REMARK   61  A    between atoms: _136  and  _137
REMARK   62  A    between atoms: _140  and  _142
REMARK   63  A    between atoms: _142  and  _143
REMARK   64  A    between atoms: _145  and  _147
REMARK   65  A    between atoms: _147  and  _148
REMARK   66  A    between atoms: _147  and  _150
REMARK   67  A    between atoms: _150  and  _151
REMARK   68  A    between atoms: _154  and  _156
REMARK   69  A    between atoms: _156  and  _157
REMARK   70  A    between atoms: _159  and  _161
REMARK   71  A    between atoms: _161  and  _162
REMARK   72  A    between atoms: _164  and  _166
REMARK   73  A    between atoms: _166  and  _167
REMARK   74  A    between atoms: _166  and  _169
REMARK   75  A    between atoms: _169  and  _170
REMARK   76  A    between atoms: _176  and  _178
REMARK   77  A    between atoms: _178  and  _179
REMARK   78  A    between atoms: _178  and  _181
REMARK   79  A    between atoms: _181  and  _182
REMARK   80  A    between atoms: _185  and  _187
REMARK   81  A    between atoms: _187  and  _188
REMARK   82  A    between atoms: _187  and  _190
REMARK   83  A    between atoms: _193  and  _195
REMARK   84  A    between atoms: _195  and  _196
REMARK   85  A    between atoms: _195  and  _198
REMARK   86  A    between atoms: _198  and  _199
REMARK   87  A    between atoms: _203  and  _204
REMARK   88  A    between atoms: _209  and  _211
REMARK   89  A    between atoms: _211  and  _212
REMARK   90  A    between atoms: _211  and  _214
REMARK   91  A    between atoms: _214  and  _215
REMARK   92  A    between atoms: _219  and  _220
REMARK   93  A    between atoms: _225  and  _227
REMARK   94  A    between atoms: _227  and  _228
REMARK   95  A    between atoms: _227  and  _230
REMARK   96  A    between atoms: _233  and  _235
REMARK   97  A    between atoms: _235  and  _236
REMARK   98  A    between atoms: _235  and  _238
REMARK   99  A    between atoms: _238  and  _239
REMARK  100  A    between atoms: _244  and  _246
REMARK  101  A    between atoms: _246  and  _247
REMARK  102  A    between atoms: _246  and  _249
REMARK  103  A    between atoms: _249  and  _250
REMARK  104  A    between atoms: _253  and  _255
REMARK  105  A    between atoms: _255  and  _256
REMARK  106  A    between atoms: _255  and  _258
REMARK  107  A    between atoms: _258  and  _259
REMARK  108  A    between atoms: _262  and  _264
REMARK  109  A    between atoms: _264  and  _265
REMARK  110  A    between atoms: _267  and  _269
REMARK  111  A    between atoms: _269  and  _270
REMARK  112  A    between atoms: _269  and  _272
REMARK  113  A    between atoms: _272  and  _273
REMARK  114  A    between atoms: _273  and  _274
REMARK  115  A    between atoms: _274  and  _275
REMARK  116  A    between atoms: _284  and  _286
REMARK  117  A    between atoms: _286  and  _287
REMARK  118  A    between atoms: _286  and  _289
REMARK  119  A    between atoms: _289  and  _290
REMARK  120  A    between atoms: _295  and  _297
REMARK  121  A    between atoms: _297  and  _298
REMARK  122  A    between atoms: _297  and  _300
REMARK  123  A    between atoms: _300  and  _301
REMARK  124  A    between atoms: _301  and  _302
REMARK  125  A    between atoms: _302  and  _303
REMARK  126  A    between atoms: _312  and  _314
REMARK  127  A    between atoms: _314  and  _315
REMARK  128  A    between atoms: _314  and  _317
REMARK  129  A    between atoms: _317  and  _318
REMARK  130  A    between atoms: _321  and  _323
REMARK  131  A    between atoms: _323  and  _324
REMARK  132  A    between atoms: _323  and  _326
REMARK  133  A    between atoms: _326  and  _327
REMARK  134  A    between atoms: _330  and  _332
REMARK  135  A    between atoms: _332  and  _333
REMARK  136  A    between atoms: _332  and  _335
REMARK  137  A    between atoms: _335  and  _336
REMARK  138  A    between atoms: _339  and  _341
REMARK  139  A    between atoms: _341  and  _342
REMARK  140  A    between atoms: _341  and  _344
REMARK  141  A    between atoms: _344  and  _345
REMARK  142  A    between atoms: _348  and  _350
REMARK  143  A    between atoms: _350  and  _351
REMARK  144  A    between atoms: _353  and  _355
REMARK  145  A    between atoms: _355  and  _356
REMARK  146  A    between atoms: _359  and  _361
REMARK  147  A    between atoms: _361  and  _362
REMARK  148  A    between atoms: _361  and  _364
REMARK  149  A    between atoms: _364  and  _365
REMARK  150  A    between atoms: _368  and  _370
REMARK  151  A    between atoms: _370  and  _371
REMARK  152  A    between atoms: _370  and  _373
REMARK  153  A    between atoms: _373  and  _374
REMARK  154  A    between atoms: _377  and  _379
REMARK  155  A    between atoms: _379  and  _380
REMARK  156  A    between atoms: _379  and  _382
REMARK  157  A    between atoms: _382  and  _383
REMARK  158  A    between atoms: _386  and  _388
REMARK  159  A    between atoms: _388  and  _389
REMARK  160  A    between atoms: _388  and  _391
REMARK  161  A    between atoms: _394  and  _396
REMARK  162  A    between atoms: _396  and  _397
REMARK  163  A    between atoms: _396  and  _399
REMARK  164  A    between atoms: _399  and  _400
REMARK  165  A    between atoms: _403  and  _405
REMARK  166  A    between atoms: _405  and  _406
REMARK  167  A    between atoms: _405  and  _408
REMARK  168  A    between atoms: _408  and  _409
REMARK  169  A    between atoms: _409  and  _410
REMARK  170  A    between atoms: _410  and  _411
REMARK  171  A    between atoms: _411  and  _412
REMARK  172  A    between atoms: _416  and  _418
REMARK  173  A    between atoms: _418  and  _419
REMARK  174  A    between atoms: _418  and  _421
REMARK  175  A    between atoms: _421  and  _422
REMARK  176  A    between atoms: _425  and  _427
REMARK  177  A    between atoms: _427  and  _428
REMARK  178  A    between atoms: _427  and  _430
REMARK  179  A    between atoms: _430  and  _431
REMARK  180  A    between atoms: _434  and  _436
REMARK  181  A    between atoms: _436  and  _437
REMARK  182  A    between atoms: _439  and  _441
REMARK  183  A    between atoms: _441  and  _442
REMARK  184  A    between atoms: _441  and  _444
REMARK  185  A    between atoms: _444  and  _445
REMARK  186  A    between atoms: _448  and  _450
REMARK  187  A    between atoms: _450  and  _451
REMARK  188  A    between atoms: _453  and  _455
REMARK  189  A    between atoms: _455  and  _456
REMARK  190  A    between atoms: _458  and  _460
REMARK  191  A    between atoms: _460  and  _461
REMARK  192  A    between atoms: _460  and  _463
REMARK  193  A    between atoms: _463  and  _464
REMARK  194  A    between atoms: _467  and  _469
REMARK  195  A    between atoms: _469  and  _470
REMARK  196  A    between atoms: _469  and  _472
REMARK  197  A    between atoms: _475  and  _477
REMARK  198  A    between atoms: _477  and  _478
REMARK  199  A    between atoms: _477  and  _480
REMARK  200  A    between atoms: _480  and  _481
REMARK  201  A    between atoms: _485  and  _486
REMARK  202  A    between atoms: _491  and  _493
REMARK  203  A    between atoms: _493  and  _494
REMARK  204  A    between atoms: _493  and  _496
REMARK  205  A    between atoms: _496  and  _497
REMARK  206  A    between atoms: _501  and  _502
REMARK  207  A    between atoms: _507  and  _509
REMARK  208  A    between atoms: _509  and  _510
REMARK  209  A    between atoms: _509  and  _512
REMARK  210  A    between atoms: _515  and  _517
REMARK  211  A    between atoms: _517  and  _518
REMARK  212  A    between atoms: _517  and  _520
REMARK  213  A    between atoms: _520  and  _521
REMARK  214  A    between atoms: _526  and  _528
REMARK  215  A    between atoms: _528  and  _529
REMARK  216  A    between atoms: _528  and  _531
REMARK  217  A    between atoms: _531  and  _532
REMARK  218  A    between atoms: _535  and  _537
REMARK  219  A    between atoms: _537  and  _538
REMARK  220  A    between atoms: _537  and  _540
REMARK  221  A    between atoms: _540  and  _541
REMARK  222  A    between atoms: _544  and  _546
REMARK  223  A    between atoms: _546  and  _547
REMARK  224  A    between atoms: _549  and  _551
REMARK  225  A    between atoms: _551  and  _552
REMARK  226  A    between atoms: _551  and  _554
REMARK  227  A    between atoms: _554  and  _555
REMARK  228  A    between atoms: _555  and  _556
REMARK  229  A    between atoms: _556  and  _557
REMARK                            x       y       z     vdW  Elec       q    Type
REMARK                         _______ _______ _______ _____ _____    ______ ____
ROOT
ATOM      1  O   HOH     1       6.459  -5.449   1.630  0.00  0.00    +0.000 OA
ENDROOT
TORSDOF 0
REMARK  Name = ../refined-set-2016/4qgi/4qgi_pocket.pdb
REMARK  229 active torsions:
REMARK  status: ('A' for Active; 'I' for Inactive)
REMARK    1  A    between atoms: _1  and  _3
REMARK    2  A    between atoms: _3  and  _4
REMARK    3  A    between atoms: _3  and  _6
REMARK    4  A    between atoms: _6  and  _7
REMARK    5  A    between atoms: _7  and  _8
REMARK    6  A    between atoms: _8  and  _9
REMARK    7  A    between atoms: _18  and  _20
REMARK    8  A    between atoms: _20  and  _21
REMARK    9  A    between atoms: _20  and  _23
REMARK   10  A    between atoms: _23  and  _24
REMARK   11  A    between atoms: _27  and  _29
REMARK   12  A    between atoms: _29  and  _30
REMARK   13  A    between atoms: _29  and  _32
REMARK   14  A    between atoms: _32  and  _33
REMARK   15  A    between atoms: _36  and  _38
REMARK   16  A    between atoms: _38  and  _39
REMARK   17  A    between atoms: _38  and  _41
REMARK   18  A    between atoms: _41  and  _42
REMARK   19  A    between atoms: _45  and  _47
REMARK   20  A    between atoms: _47  and  _48
REMARK   21  A    between atoms: _47  and  _50
REMARK   22  A    between atoms: _50  and  _51
REMARK   23  A    between atoms: _54  and  _56
REMARK   24  A    between atoms: _56  and  _57
REMARK   25  A    between atoms: _59  and  _61
REMARK   26  A    between atoms: _61  and  _62
REMARK   27  A    between atoms: _65  and  _67
REMARK   28  A    between atoms: _67  and  _68
REMARK   29  A    between atoms: _67  and  _70
REMARK   30  A    between atoms: _70  and  _71
REMARK   31  A    between atoms: _74  and  _76
REMARK   32  A    between atoms: _76  and  _77
REMARK   33  A    between atoms: _76  and  _79
REMARK   34  A    between atoms: _79  and  _80
REMARK   35  A    between atoms: _83  and  _85
REMARK   36  A    between atoms: _85  and  _86
REMARK   37  A    between atoms: _85  and  _88
REMARK   38  A    between atoms: _88  and  _89
REMARK   39  A    between atoms: _92  and  _94
REMARK   40  A    between atoms: _94  and  _95
REMARK   41  A    between atoms: _94  and  _97
REMARK   42  A    between atoms: _100  and  _102
REMARK   43  A    between atoms: _102  and  _103
REMARK   44  A    between atoms: _102  and  _105
REMARK   45  A    between atoms: _105  and  _106
REMARK   46  A    between atoms: _106  and  _107
REMARK   47  A    between atoms: _107  and  _108
REMARK   48  A    between atoms: _108  and  _109
REMARK   49  A    between atoms: _113  and  _115
REMARK   50  A    between atoms: _115  and  _116
REMARK   51  A    between atoms: _115  and  _118
REMARK   52  A    between atoms: _118  and  _119
REMARK   53  A    between atoms: _119  and  _120
REMARK   54  A    between atoms: _122  and  _124
REMARK   55  A    between atoms: _124  and  _125
REMARK   56  A    between atoms: _124  and  _127
REMARK   57  A    between atoms: _127  and  _128
REMARK   58  A    between atoms: _131  and  _133
REMARK   59  A    between atoms: _133  and  _134
REMARK   60  A    between atoms: _133  and  _136
REMARK   61  A    between atoms: _136  and  _137
REMARK   62  A    between atoms: _140  and  _142
REMARK   63  A    between atoms: _142  and  _143
REMARK   64  A    between atoms: _145  and  _147
REMARK   65  A    between atoms: _147  and  _148
REMARK   66  A    between atoms: _147  and  _150
REMARK   67  A    between atoms: _150  and  _151
REMARK   68  A    between atoms: _154  and  _156
REMARK   69  A    between atoms: _156  and  _157
REMARK   70  A    between atoms: _159  and  _161
REMARK   71  A    between atoms: _161  and  _162
REMARK   72  A    between atoms: _164  and  _166
REMARK   73  A    between atoms: _166  and  _167
REMARK   74  A    between atoms: _166  and  _169
REMARK   75  A    between atoms: _169  and  _170
REMARK   76  A    between atoms: _176  and  _178
REMARK   77  A    between atoms: _178  and  _179
REMARK   78  A    between atoms: _178  and  _181
REMARK   79  A    between atoms: _181  and  _182
REMARK   80  A    between atoms: _185  and  _187
REMARK   81  A    between atoms: _187  and  _188
REMARK   82  A    between atoms: _187  and  _190
REMARK   83  A    between atoms: _193  and  _195
REMARK   84  A    between atoms: _195  and  _196
REMARK   85  A    between atoms: _195  and  _198
REMARK   86  A    between atoms: _198  and  _199
REMARK   87  A    between atoms: _203  and  _204
REMARK   88  A    between atoms: _209  and  _211
REMARK   89  A    between atoms: _211  and  _212
REMARK   90  A    between atoms: _211  and  _214
REMARK   91  A    between atoms: _214  and  _215
REMARK   92  A    between atoms: _219  and  _220
REMARK   93  A    between atoms: _225  and  _227
REMARK   94  A    between atoms: _227  and  _228
REMARK   95  A    between atoms: _227  and  _230
REMARK   96  A    between atoms: _233  and  _235
REMARK   97  A    between atoms: _235  and  _236
REMARK   98  A    between atoms: _235  and  _238
REMARK   99  A    between atoms: _238  and  _239
REMARK  100  A    between atoms: _244  and  _246
REMARK  101  A    between atoms: _246  and  _247
REMARK  102  A    between atoms: _246  and  _249
REMARK  103  A    between atoms: _249  and  _250
REMARK  104  A    between atoms: _253  and  _255
REMARK  105  A    between atoms: _255  and  _256
REMARK  106  A    between atoms: _255  and  _258
REMARK  107  A    between atoms: _258  and  _259
REMARK  108  A    between atoms: _262  and  _264
REMARK  109  A    between atoms: _264  and  _265
REMARK  110  A    between atoms: _267  and  _269
REMARK  111  A    between atoms: _269  and  _270
REMARK  112  A    between atoms: _269  and  _272
REMARK  113  A    between atoms: _272  and  _273
REMARK  114  A    between atoms: _273  and  _274
REMARK  115  A    between atoms: _274  and  _275
REMARK  116  A    between atoms: _284  and  _286
REMARK  117  A    between atoms: _286  and  _287
REMARK  118  A    between atoms: _286  and  _289
REMARK  119  A    between atoms: _289  and  _290
REMARK  120  A    between atoms: _295  and  _297
REMARK  121  A    between atoms: _297  and  _298
REMARK  122  A    between atoms: _297  and  _300
REMARK  123  A    between atoms: _300  and  _301
REMARK  124  A    between atoms: _301  and  _302
REMARK  125  A    between atoms: _302  and  _303
REMARK  126  A    between atoms: _312  and  _314
REMARK  127  A    between atoms: _314  and  _315
REMARK  128  A    between atoms: _314  and  _317
REMARK  129  A    between atoms: _317  and  _318
REMARK  130  A    between atoms: _321  and  _323
REMARK  131  A    between atoms: _323  and  _324
REMARK  132  A    between atoms: _323  and  _326
REMARK  133  A    between atoms: _326  and  _327
REMARK  134  A    between atoms: _330  and  _332
REMARK  135  A    between atoms: _332  and  _333
REMARK  136  A    between atoms: _332  and  _335
REMARK  137  A    between atoms: _335  and  _336
REMARK  138  A    between atoms: _339  and  _341
REMARK  139  A    between atoms: _341  and  _342
REMARK  140  A    between atoms: _341  and  _344
REMARK  141  A    between atoms: _344  and  _345
REMARK  142  A    between atoms: _348  and  _350
REMARK  143  A    between atoms: _350  and  _351
REMARK  144  A    between atoms: _353  and  _355
REMARK  145  A    between atoms: _355  and  _356
REMARK  146  A    between atoms: _359  and  _361
REMARK  147  A    between atoms: _361  and  _362
REMARK  148  A    between atoms: _361  and  _364
REMARK  149  A    between atoms: _364  and  _365
REMARK  150  A    between atoms: _368  and  _370
REMARK  151  A    between atoms: _370  and  _371
REMARK  152  A    between atoms: _370  and  _373
REMARK  153  A    between atoms: _373  and  _374
REMARK  154  A    between atoms: _377  and  _379
REMARK  155  A    between atoms: _379  and  _380
REMARK  156  A    between atoms: _379  and  _382
REMARK  157  A    between atoms: _382  and  _383
REMARK  158  A    between atoms: _386  and  _388
REMARK  159  A    between atoms: _388  and  _389
REMARK  160  A    between atoms: _388  and  _391
REMARK  161  A    between atoms: _394  and  _396
REMARK  162  A    between atoms: _396  and  _397
REMARK  163  A    between atoms: _396  and  _399
REMARK  164  A    between atoms: _399  and  _400
REMARK  165  A    between atoms: _403  and  _405
REMARK  166  A    between atoms: _405  and  _406
REMARK  167  A    between atoms: _405  and  _408
REMARK  168  A    between atoms: _408  and  _409
REMARK  169  A    between atoms: _409  and  _410
REMARK  170  A    between atoms: _410  and  _411
REMARK  171  A    between atoms: _411  and  _412
REMARK  172  A    between atoms: _416  and  _418
REMARK  173  A    between atoms: _418  and  _419
REMARK  174  A    between atoms: _418  and  _421
REMARK  175  A    between atoms: _421  and  _422
REMARK  176  A    between atoms: _425  and  _427
REMARK  177  A    between atoms: _427  and  _428
REMARK  178  A    between atoms: _427  and  _430
REMARK  179  A    between atoms: _430  and  _431
REMARK  180  A    between atoms: _434  and  _436
REMARK  181  A    between atoms: _436  and  _437
REMARK  182  A    between atoms: _439  and  _441
REMARK  183  A    between atoms: _441  and  _442
REMARK  184  A    between atoms: _441  and  _444
REMARK  185  A    between atoms: _444  and  _445
REMARK  186  A    between atoms: _448  and  _450
REMARK  187  A    between atoms: _450  and  _451
REMARK  188  A    between atoms: _453  and  _455
REMARK  189  A    between atoms: _455  and  _456
REMARK  190  A    between atoms: _458  and  _460
REMARK  191  A    between atoms: _460  and  _461
REMARK  192  A    between atoms: _460  and  _463
REMARK  193  A    between atoms: _463  and  _464
REMARK  194  A    between atoms: _467  and  _469
REMARK  195  A    between atoms: _469  and  _470
REMARK  196  A    between atoms: _469  and  _472
REMARK  197  A    between atoms: _475  and  _477
REMARK  198  A    between atoms: _477  and  _478
REMARK  199  A    between atoms: _477  and  _480
REMARK  200  A    between atoms: _480  and  _481
REMARK  201  A    between atoms: _485  and  _486
REMARK  202  A    between atoms: _491  and  _493
REMARK  203  A    between atoms: _493  and  _494
REMARK  204  A    between atoms: _493  and  _496
REMARK  205  A    between atoms: _496  and  _497
REMARK  206  A    between atoms: _501  and  _502
REMARK  207  A    between atoms: _507  and  _509
REMARK  208  A    between atoms: _509  and  _510
REMARK  209  A    between atoms: _509  and  _512
REMARK  210  A    between atoms: _515  and  _517
REMARK  211  A    between atoms: _517  and  _518
REMARK  212  A    between atoms: _517  and  _520
REMARK  213  A    between atoms: _520  and  _521
REMARK  214  A    between atoms: _526  and  _528
REMARK  215  A    between atoms: _528  and  _529
REMARK  216  A    between atoms: _528  and  _531
REMARK  217  A    between atoms: _531  and  _532
REMARK  218  A    between atoms: _535  and  _537
REMARK  219  A    between atoms: _537  and  _538
REMARK  220  A    between atoms: _537  and  _540
REMARK  221  A    between atoms: _540  and  _541
REMARK  222  A    between atoms: _544  and  _546
REMARK  223  A    between atoms: _546  and  _547
REMARK  224  A    between atoms: _549  and  _551
REMARK  225  A    between atoms: _551  and  _552
REMARK  226  A    between atoms: _551  and  _554
REMARK  227  A    between atoms: _554  and  _555
REMARK  228  A    between atoms: _555  and  _556
REMARK  229  A    between atoms: _556  and  _557
REMARK                            x       y       z     vdW  Elec       q    Type
REMARK                         _______ _______ _______ _____ _____    ______ ____
ROOT
ATOM      1  O   HOH     1       6.936  -3.937  -6.440  0.00  0.00    +0.000 OA
ENDROOT
TORSDOF 0
REMARK  Name = ../refined-set-2016/4qgi/4qgi_pocket.pdb
REMARK  229 active torsions:
REMARK  status: ('A' for Active; 'I' for Inactive)
REMARK    1  A    between atoms: _1  and  _3
REMARK    2  A    between atoms: _3  and  _4
REMARK    3  A    between atoms: _3  and  _6
REMARK    4  A    between atoms: _6  and  _7
REMARK    5  A    between atoms: _7  and  _8
REMARK    6  A    between atoms: _8  and  _9
REMARK    7  A    between atoms: _18  and  _20
REMARK    8  A    between atoms: _20  and  _21
REMARK    9  A    between atoms: _20  and  _23
REMARK   10  A    between atoms: _23  and  _24
REMARK   11  A    between atoms: _27  and  _29
REMARK   12  A    between atoms: _29  and  _30
REMARK   13  A    between atoms: _29  and  _32
REMARK   14  A    between atoms: _32  and  _33
REMARK   15  A    between atoms: _36  and  _38
REMARK   16  A    between atoms: _38  and  _39
REMARK   17  A    between atoms: _38  and  _41
REMARK   18  A    between atoms: _41  and  _42
REMARK   19  A    between atoms: _45  and  _47
REMARK   20  A    between atoms: _47  and  _48
REMARK   21  A    between atoms: _47  and  _50
REMARK   22  A    between atoms: _50  and  _51
REMARK   23  A    between atoms: _54  and  _56
REMARK   24  A    between atoms: _56  and  _57
REMARK   25  A    between atoms: _59  and  _61
REMARK   26  A    between atoms: _61  and  _62
REMARK   27  A    between atoms: _65  and  _67
REMARK   28  A    between atoms: _67  and  _68
REMARK   29  A    between atoms: _67  and  _70
REMARK   30  A    between atoms: _70  and  _71
REMARK   31  A    between atoms: _74  and  _76
REMARK   32  A    between atoms: _76  and  _77
REMARK   33  A    between atoms: _76  and  _79
REMARK   34  A    between atoms: _79  and  _80
REMARK   35  A    between atoms: _83  and  _85
REMARK   36  A    between atoms: _85  and  _86
REMARK   37  A    between atoms: _85  and  _88
REMARK   38  A    between atoms: _88  and  _89
REMARK   39  A    between atoms: _92  and  _94
REMARK   40  A    between atoms: _94  and  _95
REMARK   41  A    between atoms: _94  and  _97
REMARK   42  A    between atoms: _100  and  _102
REMARK   43  A    between atoms: _102  and  _103
REMARK   44  A    between atoms: _102  and  _105
REMARK   45  A    between atoms: _105  and  _106
REMARK   46  A    between atoms: _106  and  _107
REMARK   47  A    between atoms: _107  and  _108
REMARK   48  A    between atoms: _108  and  _109
REMARK   49  A    between atoms: _113  and  _115
REMARK   50  A    between atoms: _115  and  _116
REMARK   51  A    between atoms: _115  and  _118
REMARK   52  A    between atoms: _118  and  _119
REMARK   53  A    between atoms: _119  and  _120
REMARK   54  A    between atoms: _122  and  _124
REMARK   55  A    between atoms: _124  and  _125
REMARK   56  A    between atoms: _124  and  _127
REMARK   57  A    between atoms: _127  and  _128
REMARK   58  A    between atoms: _131  and  _133
REMARK   59  A    between atoms: _133  and  _134
REMARK   60  A    between atoms: _133  and  _136
REMARK   61  A    between atoms: _136  and  _137
REMARK   62  A    between atoms: _140  and  _142
REMARK   63  A    between atoms: _142  and  _143
REMARK   64  A    between atoms: _145  and  _147
REMARK   65  A    between atoms: _147  and  _148
REMARK   66  A    between atoms: _147  and  _150
REMARK   67  A    between atoms: _150  and  _151
REMARK   68  A    between atoms: _154  and  _156
REMARK   69  A    between atoms: _156  and  _157
REMARK   70  A    between atoms: _159  and  _161
REMARK   71  A    between atoms: _161  and  _162
REMARK   72  A    between atoms: _164  and  _166
REMARK   73  A    between atoms: _166  and  _167
REMARK   74  A    between atoms: _166  and  _169
REMARK   75  A    between atoms: _169  and  _170
REMARK   76  A    between atoms: _176  and  _178
REMARK   77  A    between atoms: _178  and  _179
REMARK   78  A    between atoms: _178  and  _181
REMARK   79  A    between atoms: _181  and  _182
REMARK   80  A    between atoms: _185  and  _187
REMARK   81  A    between atoms: _187  and  _188
REMARK   82  A    between atoms: _187  and  _190
REMARK   83  A    between atoms: _193  and  _195
REMARK   84  A    between atoms: _195  and  _196
REMARK   85  A    between atoms: _195  and  _198
REMARK   86  A    between atoms: _198  and  _199
REMARK   87  A    between atoms: _203  and  _204
REMARK   88  A    between atoms: _209  and  _211
REMARK   89  A    between atoms: _211  and  _212
REMARK   90  A    between atoms: _211  and  _214
REMARK   91  A    between atoms: _214  and  _215
REMARK   92  A    between atoms: _219  and  _220
REMARK   93  A    between atoms: _225  and  _227
REMARK   94  A    between atoms: _227  and  _228
REMARK   95  A    between atoms: _227  and  _230
REMARK   96  A    between atoms: _233  and  _235
REMARK   97  A    between atoms: _235  and  _236
REMARK   98  A    between atoms: _235  and  _238
REMARK   99  A    between atoms: _238  and  _239
REMARK  100  A    between atoms: _244  and  _246
REMARK  101  A    between atoms: _246  and  _247
REMARK  102  A    between atoms: _246  and  _249
REMARK  103  A    between atoms: _249  and  _250
REMARK  104  A    between atoms: _253  and  _255
REMARK  105  A    between atoms: _255  and  _256
REMARK  106  A    between atoms: _255  and  _258
REMARK  107  A    between atoms: _258  and  _259
REMARK  108  A    between atoms: _262  and  _264
REMARK  109  A    between atoms: _264  and  _265
REMARK  110  A    between atoms: _267  and  _269
REMARK  111  A    between atoms: _269  and  _270
REMARK  112  A    between atoms: _269  and  _272
REMARK  113  A    between atoms: _272  and  _273
REMARK  114  A    between atoms: _273  and  _274
REMARK  115  A    between atoms: _274  and  _275
REMARK  116  A    between atoms: _284  and  _286
REMARK  117  A    between atoms: _286  and  _287
REMARK  118  A    between atoms: _286  and  _289
REMARK  119  A    between atoms: _289  and  _290
REMARK  120  A    between atoms: _295  and  _297
REMARK  121  A    between atoms: _297  and  _298
REMARK  122  A    between atoms: _297  and  _300
REMARK  123  A    between atoms: _300  and  _301
REMARK  124  A    between atoms: _301  and  _302
REMARK  125  A    between atoms: _302  and  _303
REMARK  126  A    between atoms: _312  and  _314
REMARK  127  A    between atoms: _314  and  _315
REMARK  128  A    between atoms: _314  and  _317
REMARK  129  A    between atoms: _317  and  _318
REMARK  130  A    between atoms: _321  and  _323
REMARK  131  A    between atoms: _323  and  _324
REMARK  132  A    between atoms: _323  and  _326
REMARK  133  A    between atoms: _326  and  _327
REMARK  134  A    between atoms: _330  and  _332
REMARK  135  A    between atoms: _332  and  _333
REMARK  136  A    between atoms: _332  and  _335
REMARK  137  A    between atoms: _335  and  _336
REMARK  138  A    between atoms: _339  and  _341
REMARK  139  A    between atoms: _341  and  _342
REMARK  140  A    between atoms: _341  and  _344
REMARK  141  A    between atoms: _344  and  _345
REMARK  142  A    between atoms: _348  and  _350
REMARK  143  A    between atoms: _350  and  _351
REMARK  144  A    between atoms: _353  and  _355
REMARK  145  A    between atoms: _355  and  _356
REMARK  146  A    between atoms: _359  and  _361
REMARK  147  A    between atoms: _361  and  _362
REMARK  148  A    between atoms: _361  and  _364
REMARK  149  A    between atoms: _364  and  _365
REMARK  150  A    between atoms: _368  and  _370
REMARK  151  A    between atoms: _370  and  _371
REMARK  152  A    between atoms: _370  and  _373
REMARK  153  A    between atoms: _373  and  _374
REMARK  154  A    between atoms: _377  and  _379
REMARK  155  A    between atoms: _379  and  _380
REMARK  156  A    between atoms: _379  and  _382
REMARK  157  A    between atoms: _382  and  _383
REMARK  158  A    between atoms: _386  and  _388
REMARK  159  A    between atoms: _388  and  _389
REMARK  160  A    between atoms: _388  and  _391
REMARK  161  A    between atoms: _394  and  _396
REMARK  162  A    between atoms: _396  and  _397
REMARK  163  A    between atoms: _396  and  _399
REMARK  164  A    between atoms: _399  and  _400
REMARK  165  A    between atoms: _403  and  _405
REMARK  166  A    between atoms: _405  and  _406
REMARK  167  A    between atoms: _405  and  _408
REMARK  168  A    between atoms: _408  and  _409
REMARK  169  A    between atoms: _409  and  _410
REMARK  170  A    between atoms: _410  and  _411
REMARK  171  A    between atoms: _411  and  _412
REMARK  172  A    between atoms: _416  and  _418
REMARK  173  A    between atoms: _418  and  _419
REMARK  174  A    between atoms: _418  and  _421
REMARK  175  A    between atoms: _421  and  _422
REMARK  176  A    between atoms: _425  and  _427
REMARK  177  A    between atoms: _427  and  _428
REMARK  178  A    between atoms: _427  and  _430
REMARK  179  A    between atoms: _430  and  _431
REMARK  180  A    between atoms: _434  and  _436
REMARK  181  A    between atoms: _436  and  _437
REMARK  182  A    between atoms: _439  and  _441
REMARK  183  A    between atoms: _441  and  _442
REMARK  184  A    between atoms: _441  and  _444
REMARK  185  A    between atoms: _444  and  _445
REMARK  186  A    between atoms: _448  and  _450
REMARK  187  A    between atoms: _450  and  _451
REMARK  188  A    between atoms: _453  and  _455
REMARK  189  A    between atoms: _455  and  _456
REMARK  190  A    between atoms: _458  and  _460
REMARK  191  A    between atoms: _460  and  _461
REMARK  192  A    between atoms: _460  and  _463
REMARK  193  A    between atoms: _463  and  _464
REMARK  194  A    between atoms: _467  and  _469
REMARK  195  A    between atoms: _469  and  _470
REMARK  196  A    between atoms: _469  and  _472
REMARK  197  A    between atoms: _475  and  _477
REMARK  198  A    between atoms: _477  and  _478
REMARK  199  A    between atoms: _477  and  _480
REMARK  200  A    between atoms: _480  and  _481
REMARK  201  A    between atoms: _485  and  _486
REMARK  202  A    between atoms: _491  and  _493
REMARK  203  A    between atoms: _493  and  _494
REMARK  204  A    between atoms: _493  and  _496
REMARK  205  A    between atoms: _496  and  _497
REMARK  206  A    between atoms: _501  and  _502
REMARK  207  A    between atoms: _507  and  _509
REMARK  208  A    between atoms: _509  and  _510
REMARK  209  A    between atoms: _509  and  _512
REMARK  210  A    between atoms: _515  and  _517
REMARK  211  A    between atoms: _517  and  _518
REMARK  212  A    between atoms: _517  and  _520
REMARK  213  A    between atoms: _520  and  _521
REMARK  214  A    between atoms: _526  and  _528
REMARK  215  A    between atoms: _528  and  _529
REMARK  216  A    between atoms: _528  and  _531
REMARK  217  A    between atoms: _531  and  _532
REMARK  218  A    between atoms: _535  and  _537
REMARK  219  A    between atoms: _537  and  _538
REMARK  220  A    between atoms: _537  and  _540
REMARK  221  A    between atoms: _540  and  _541
REMARK  222  A    between atoms: _544  and  _546
REMARK  223  A    between atoms: _546  and  _547
REMARK  224  A    between atoms: _549  and  _551
REMARK  225  A    between atoms: _551  and  _552
REMARK  226  A    between atoms: _551  and  _554
REMARK  227  A    between atoms: _554  and  _555
REMARK  228  A    between atoms: _555  and  _556
REMARK  229  A    between atoms: _556  and  _557
REMARK                            x       y       z     vdW  Elec       q    Type
REMARK                         _______ _______ _______ _____ _____    ______ ____
ROOT
ATOM      1  O   HOH     1       6.547 -11.997  -1.770  0.00  0.00    +0.000 OA
ENDROOT
TORSDOF 0
REMARK  Name = ../refined-set-2016/4qgi/4qgi_pocket.pdb
REMARK  229 active torsions:
REMARK  status: ('A' for Active; 'I' for Inactive)
REMARK    1  A    between atoms: _1  and  _3
REMARK    2  A    between atoms: _3  and  _4
REMARK    3  A    between atoms: _3  and  _6
REMARK    4  A    between atoms: _6  and  _7
REMARK    5  A    between atoms: _7  and  _8
REMARK    6  A    between atoms: _8  and  _9
REMARK    7  A    between atoms: _18  and  _20
REMARK    8  A    between atoms: _20  and  _21
REMARK    9  A    between atoms: _20  and  _23
REMARK   10  A    between atoms: _23  and  _24
REMARK   11  A    between atoms: _27  and  _29
REMARK   12  A    between atoms: _29  and  _30
REMARK   13  A    between atoms: _29  and  _32
REMARK   14  A    between atoms: _32  and  _33
REMARK   15  A    between atoms: _36  and  _38
REMARK   16  A    between atoms: _38  and  _39
REMARK   17  A    between atoms: _38  and  _41
REMARK   18  A    between atoms: _41  and  _42
REMARK   19  A    between atoms: _45  and  _47
REMARK   20  A    between atoms: _47  and  _48
REMARK   21  A    between atoms: _47  and  _50
REMARK   22  A    between atoms: _50  and  _51
REMARK   23  A    between atoms: _54  and  _56
REMARK   24  A    between atoms: _56  and  _57
REMARK   25  A    between atoms: _59  and  _61
REMARK   26  A    between atoms: _61  and  _62
REMARK   27  A    between atoms: _65  and  _67
REMARK   28  A    between atoms: _67  and  _68
REMARK   29  A    between atoms: _67  and  _70
REMARK   30  A    between atoms: _70  and  _71
REMARK   31  A    between atoms: _74  and  _76
REMARK   32  A    between atoms: _76  and  _77
REMARK   33  A    between atoms: _76  and  _79
REMARK   34  A    between atoms: _79  and  _80
REMARK   35  A    between atoms: _83  and  _85
REMARK   36  A    between atoms: _85  and  _86
REMARK   37  A    between atoms: _85  and  _88
REMARK   38  A    between atoms: _88  and  _89
REMARK   39  A    between atoms: _92  and  _94
REMARK   40  A    between atoms: _94  and  _95
REMARK   41  A    between atoms: _94  and  _97
REMARK   42  A    between atoms: _100  and  _102
REMARK   43  A    between atoms: _102  and  _103
REMARK   44  A    between atoms: _102  and  _105
REMARK   45  A    between atoms: _105  and  _106
REMARK   46  A    between atoms: _106  and  _107
REMARK   47  A    between atoms: _107  and  _108
REMARK   48  A    between atoms: _108  and  _109
REMARK   49  A    between atoms: _113  and  _115
REMARK   50  A    between atoms: _115  and  _116
REMARK   51  A    between atoms: _115  and  _118
REMARK   52  A    between atoms: _118  and  _119
REMARK   53  A    between atoms: _119  and  _120
REMARK   54  A    between atoms: _122  and  _124
REMARK   55  A    between atoms: _124  and  _125
REMARK   56  A    between atoms: _124  and  _127
REMARK   57  A    between atoms: _127  and  _128
REMARK   58  A    between atoms: _131  and  _133
REMARK   59  A    between atoms: _133  and  _134
REMARK   60  A    between atoms: _133  and  _136
REMARK   61  A    between atoms: _136  and  _137
REMARK   62  A    between atoms: _140  and  _142
REMARK   63  A    between atoms: _142  and  _143
REMARK   64  A    between atoms: _145  and  _147
REMARK   65  A    between atoms: _147  and  _148
REMARK   66  A    between atoms: _147  and  _150
REMARK   67  A    between atoms: _150  and  _151
REMARK   68  A    between atoms: _154  and  _156
REMARK   69  A    between atoms: _156  and  _157
REMARK   70  A    between atoms: _159  and  _161
REMARK   71  A    between atoms: _161  and  _162
REMARK   72  A    between atoms: _164  and  _166
REMARK   73  A    between atoms: _166  and  _167
REMARK   74  A    between atoms: _166  and  _169
REMARK   75  A    between atoms: _169  and  _170
REMARK   76  A    between atoms: _176  and  _178
REMARK   77  A    between atoms: _178  and  _179
REMARK   78  A    between atoms: _178  and  _181
REMARK   79  A    between atoms: _181  and  _182
REMARK   80  A    between atoms: _185  and  _187
REMARK   81  A    between atoms: _187  and  _188
REMARK   82  A    between atoms: _187  and  _190
REMARK   83  A    between atoms: _193  and  _195
REMARK   84  A    between atoms: _195  and  _196
REMARK   85  A    between atoms: _195  and  _198
REMARK   86  A    between atoms: _198  and  _199
REMARK   87  A    between atoms: _203  and  _204
REMARK   88  A    between atoms: _209  and  _211
REMARK   89  A    between atoms: _211  and  _212
REMARK   90  A    between atoms: _211  and  _214
REMARK   91  A    between atoms: _214  and  _215
REMARK   92  A    between atoms: _219  and  _220
REMARK   93  A    between atoms: _225  and  _227
REMARK   94  A    between atoms: _227  and  _228
REMARK   95  A    between atoms: _227  and  _230
REMARK   96  A    between atoms: _233  and  _235
REMARK   97  A    between atoms: _235  and  _236
REMARK   98  A    between atoms: _235  and  _238
REMARK   99  A    between atoms: _238  and  _239
REMARK  100  A    between atoms: _244  and  _246
REMARK  101  A    between atoms: _246  and  _247
REMARK  102  A    between atoms: _246  and  _249
REMARK  103  A    between atoms: _249  and  _250
REMARK  104  A    between atoms: _253  and  _255
REMARK  105  A    between atoms: _255  and  _256
REMARK  106  A    between atoms: _255  and  _258
REMARK  107  A    between atoms: _258  and  _259
REMARK  108  A    between atoms: _262  and  _264
REMARK  109  A    between atoms: _264  and  _265
REMARK  110  A    between atoms: _267  and  _269
REMARK  111  A    between atoms: _269  and  _270
REMARK  112  A    between atoms: _269  and  _272
REMARK  113  A    between atoms: _272  and  _273
REMARK  114  A    between atoms: _273  and  _274
REMARK  115  A    between atoms: _274  and  _275
REMARK  116  A    between atoms: _284  and  _286
REMARK  117  A    between atoms: _286  and  _287
REMARK  118  A    between atoms: _286  and  _289
REMARK  119  A    between atoms: _289  and  _290
REMARK  120  A    between atoms: _295  and  _297
REMARK  121  A    between atoms: _297  and  _298
REMARK  122  A    between atoms: _297  and  _300
REMARK  123  A    between atoms: _300  and  _301
REMARK  124  A    between atoms: _301  and  _302
REMARK  125  A    between atoms: _302  and  _303
REMARK  126  A    between atoms: _312  and  _314
REMARK  127  A    between atoms: _314  and  _315
REMARK  128  A    between atoms: _314  and  _317
REMARK  129  A    between atoms: _317  and  _318
REMARK  130  A    between atoms: _321  and  _323
REMARK  131  A    between atoms: _323  and  _324
REMARK  132  A    between atoms: _323  and  _326
REMARK  133  A    between atoms: _326  and  _327
REMARK  134  A    between atoms: _330  and  _332
REMARK  135  A    between atoms: _332  and  _333
REMARK  136  A    between atoms: _332  and  _335
REMARK  137  A    between atoms: _335  and  _336
REMARK  138  A    between atoms: _339  and  _341
REMARK  139  A    between atoms: _341  and  _342
REMARK  140  A    between atoms: _341  and  _344
REMARK  141  A    between atoms: _344  and  _345
REMARK  142  A    between atoms: _348  and  _350
REMARK  143  A    between atoms: _350  and  _351
REMARK  144  A    between atoms: _353  and  _355
REMARK  145  A    between atoms: _355  and  _356
REMARK  146  A    between atoms: _359  and  _361
REMARK  147  A    between atoms: _361  and  _362
REMARK  148  A    between atoms: _361  and  _364
REMARK  149  A    between atoms: _364  and  _365
REMARK  150  A    between atoms: _368  and  _370
REMARK  151  A    between atoms: _370  and  _371
REMARK  152  A    between atoms: _370  and  _373
REMARK  153  A    between atoms: _373  and  _374
REMARK  154  A    between atoms: _377  and  _379
REMARK  155  A    between atoms: _379  and  _380
REMARK  156  A    between atoms: _379  and  _382
REMARK  157  A    between atoms: _382  and  _383
REMARK  158  A    between atoms: _386  and  _388
REMARK  159  A    between atoms: _388  and  _389
REMARK  160  A    between atoms: _388  and  _391
REMARK  161  A    between atoms: _394  and  _396
REMARK  162  A    between atoms: _396  and  _397
REMARK  163  A    between atoms: _396  and  _399
REMARK  164  A    between atoms: _399  and  _400
REMARK  165  A    between atoms: _403  and  _405
REMARK  166  A    between atoms: _405  and  _406
REMARK  167  A    between atoms: _405  and  _408
REMARK  168  A    between atoms: _408  and  _409
REMARK  169  A    between atoms: _409  and  _410
REMARK  170  A    between atoms: _410  and  _411
REMARK  171  A    between atoms: _411  and  _412
REMARK  172  A    between atoms: _416  and  _418
REMARK  173  A    between atoms: _418  and  _419
REMARK  174  A    between atoms: _418  and  _421
REMARK  175  A    between atoms: _421  and  _422
REMARK  176  A    between atoms: _425  and  _427
REMARK  177  A    between atoms: _427  and  _428
REMARK  178  A    between atoms: _427  and  _430
REMARK  179  A    between atoms: _430  and  _431
REMARK  180  A    between atoms: _434  and  _436
REMARK  181  A    between atoms: _436  and  _437
REMARK  182  A    between atoms: _439  and  _441
REMARK  183  A    between atoms: _441  and  _442
REMARK  184  A    between atoms: _441  and  _444
REMARK  185  A    between atoms: _444  and  _445
REMARK  186  A    between atoms: _448  and  _450
REMARK  187  A    between atoms: _450  and  _451
REMARK  188  A    between atoms: _453  and  _455
REMARK  189  A    between atoms: _455  and  _456
REMARK  190  A    between atoms: _458  and  _460
REMARK  191  A    between atoms: _460  and  _461
REMARK  192  A    between atoms: _460  and  _463
REMARK  193  A    between atoms: _463  and  _464
REMARK  194  A    between atoms: _467  and  _469
REMARK  195  A    between atoms: _469  and  _470
REMARK  196  A    between atoms: _469  and  _472
REMARK  197  A    between atoms: _475  and  _477
REMARK  198  A    between atoms: _477  and  _478
REMARK  199  A    between atoms: _477  and  _480
REMARK  200  A    between atoms: _480  and  _481
REMARK  201  A    between atoms: _485  and  _486
REMARK  202  A    between atoms: _491  and  _493
REMARK  203  A    between atoms: _493  and  _494
REMARK  204  A    between atoms: _493  and  _496
REMARK  205  A    between atoms: _496  and  _497
REMARK  206  A    between atoms: _501  and  _502
REMARK  207  A    between atoms: _507  and  _509
REMARK  208  A    between atoms: _509  and  _510
REMARK  209  A    between atoms: _509  and  _512
REMARK  210  A    between atoms: _515  and  _517
REMARK  211  A    between atoms: _517  and  _518
REMARK  212  A    between atoms: _517  and  _520
REMARK  213  A    between atoms: _520  and  _521
REMARK  214  A    between atoms: _526  and  _528
REMARK  215  A    between atoms: _528  and  _529
REMARK  216  A    between atoms: _528  and  _531
REMARK  217  A    between atoms: _531  and  _532
REMARK  218  A    between atoms: _535  and  _537
REMARK  219  A    between atoms: _537  and  _538
REMARK  220  A    between atoms: _537  and  _540
REMARK  221  A    between atoms: _540  and  _541
REMARK  222  A    between atoms: _544  and  _546
REMARK  223  A    between atoms: _546  and  _547
REMARK  224  A    between atoms: _549  and  _551
REMARK  225  A    between atoms: _551  and  _552
REMARK  226  A    between atoms: _551  and  _554
REMARK  227  A    between atoms: _554  and  _555
REMARK  228  A    between atoms: _555  and  _556
REMARK  229  A    between atoms: _556  and  _557
REMARK                            x       y       z     vdW  Elec       q    Type
REMARK                         _______ _______ _______ _____ _____    ______ ____
ROOT
ATOM      1  O   HOH     1       7.963  -8.055  -1.689  0.00  0.00    +0.000 OA
ENDROOT
TORSDOF 0
