REMARK  Name = ../refined-set-2016/4pp0/4pp0_pocket.pdb
REMARK  216 active torsions:
REMARK  status: ('A' for Active; 'I' for Inactive)
REMARK    1  A    between atoms: _1  and  _3
REMARK    2  A    between atoms: _3  and  _4
REMARK    3  A    between atoms: _3  and  _6
REMARK    4  A    between atoms: _6  and  _7
REMARK    5  A    between atoms: _10  and  _12
REMARK    6  A    between atoms: _12  and  _13
REMARK    7  A    between atoms: _12  and  _15
REMARK    8  A    between atoms: _15  and  _16
REMARK    9  A    between atoms: _16  and  _17
REMARK   10  A    between atoms: _20  and  _22
REMARK   11  A    between atoms: _22  and  _23
REMARK   12  A    between atoms: _25  and  _27
REMARK   13  A    between atoms: _27  and  _28
REMARK   14  A    between atoms: _27  and  _30
REMARK   15  A    between atoms: _30  and  _31
REMARK   16  A    between atoms: _33  and  _35
REMARK   17  A    between atoms: _35  and  _36
REMARK   18  A    between atoms: _35  and  _38
REMARK   19  A    between atoms: _38  and  _39
REMARK   20  A    between atoms: _44  and  _45
REMARK   21  A    between atoms: _47  and  _49
REMARK   22  A    between atoms: _49  and  _50
REMARK   23  A    between atoms: _53  and  _55
REMARK   24  A    between atoms: _55  and  _56
REMARK   25  A    between atoms: _55  and  _58
REMARK   26  A    between atoms: _58  and  _59
REMARK   27  A    between atoms: _64  and  _65
REMARK   28  A    between atoms: _67  and  _69
REMARK   29  A    between atoms: _69  and  _70
REMARK   30  A    between atoms: _69  and  _72
REMARK   31  A    between atoms: _72  and  _73
REMARK   32  A    between atoms: _78  and  _80
REMARK   33  A    between atoms: _80  and  _81
REMARK   34  A    between atoms: _80  and  _83
REMARK   35  A    between atoms: _83  and  _84
REMARK   36  A    between atoms: _87  and  _89
REMARK   37  A    between atoms: _89  and  _90
REMARK   38  A    between atoms: _89  and  _92
REMARK   39  A    between atoms: _92  and  _93
REMARK   40  A    between atoms: _93  and  _94
REMARK   41  A    between atoms: _99  and  _101
REMARK   42  A    between atoms: _101  and  _102
REMARK   43  A    between atoms: _101  and  _104
REMARK   44  A    between atoms: _104  and  _105
REMARK   45  A    between atoms: _115  and  _117
REMARK   46  A    between atoms: _117  and  _118
REMARK   47  A    between atoms: _117  and  _120
REMARK   48  A    between atoms: _120  and  _121
REMARK   49  A    between atoms: _124  and  _126
REMARK   50  A    between atoms: _126  and  _127
REMARK   51  A    between atoms: _126  and  _129
REMARK   52  A    between atoms: _129  and  _130
REMARK   53  A    between atoms: _133  and  _135
REMARK   54  A    between atoms: _135  and  _136
REMARK   55  A    between atoms: _135  and  _138
REMARK   56  A    between atoms: _138  and  _139
REMARK   57  A    between atoms: _139  and  _140
REMARK   58  A    between atoms: _142  and  _144
REMARK   59  A    between atoms: _144  and  _145
REMARK   60  A    between atoms: _148  and  _150
REMARK   61  A    between atoms: _150  and  _151
REMARK   62  A    between atoms: _154  and  _156
REMARK   63  A    between atoms: _156  and  _157
REMARK   64  A    between atoms: _156  and  _159
REMARK   65  A    between atoms: _159  and  _160
REMARK   66  A    between atoms: _160  and  _161
REMARK   67  A    between atoms: _163  and  _165
REMARK   68  A    between atoms: _165  and  _166
REMARK   69  A    between atoms: _168  and  _170
REMARK   70  A    between atoms: _170  and  _171
REMARK   71  A    between atoms: _170  and  _173
REMARK   72  A    between atoms: _173  and  _174
REMARK   73  A    between atoms: _177  and  _179
REMARK   74  A    between atoms: _179  and  _180
REMARK   75  A    between atoms: _179  and  _182
REMARK   76  A    between atoms: _182  and  _183
REMARK   77  A    between atoms: _183  and  _184
REMARK   78  A    between atoms: _189  and  _191
REMARK   79  A    between atoms: _191  and  _192
REMARK   80  A    between atoms: _191  and  _194
REMARK   81  A    between atoms: _194  and  _195
REMARK   82  A    between atoms: _195  and  _196
REMARK   83  A    between atoms: _196  and  _197
REMARK   84  A    between atoms: _206  and  _208
REMARK   85  A    between atoms: _208  and  _209
REMARK   86  A    between atoms: _208  and  _211
REMARK   87  A    between atoms: _211  and  _212
REMARK   88  A    between atoms: _218  and  _220
REMARK   89  A    between atoms: _220  and  _221
REMARK   90  A    between atoms: _220  and  _223
REMARK   91  A    between atoms: _223  and  _224
REMARK   92  A    between atoms: _227  and  _229
REMARK   93  A    between atoms: _229  and  _230
REMARK   94  A    between atoms: _229  and  _232
REMARK   95  A    between atoms: _232  and  _233
REMARK   96  A    between atoms: _236  and  _238
REMARK   97  A    between atoms: _238  and  _239
REMARK   98  A    between atoms: _238  and  _241
REMARK   99  A    between atoms: _241  and  _242
REMARK  100  A    between atoms: _246  and  _247
REMARK  101  A    between atoms: _252  and  _254
REMARK  102  A    between atoms: _254  and  _255
REMARK  103  A    between atoms: _254  and  _257
REMARK  104  A    between atoms: _257  and  _258
REMARK  105  A    between atoms: _263  and  _265
REMARK  106  A    between atoms: _265  and  _266
REMARK  107  A    between atoms: _265  and  _268
REMARK  108  A    between atoms: _268  and  _269
REMARK  109  A    between atoms: _272  and  _274
REMARK  110  A    between atoms: _274  and  _275
REMARK  111  A    between atoms: _274  and  _277
REMARK  112  A    between atoms: _277  and  _278
REMARK  113  A    between atoms: _278  and  _279
REMARK  114  A    between atoms: _284  and  _286
REMARK  115  A    between atoms: _286  and  _287
REMARK  116  A    between atoms: _290  and  _292
REMARK  117  A    between atoms: _292  and  _293
REMARK  118  A    between atoms: _295  and  _297
REMARK  119  A    between atoms: _297  and  _298
REMARK  120  A    between atoms: _297  and  _300
REMARK  121  A    between atoms: _300  and  _301
REMARK  122  A    between atoms: _304  and  _306
REMARK  123  A    between atoms: _306  and  _307
REMARK  124  A    between atoms: _306  and  _309
REMARK  125  A    between atoms: _309  and  _310
REMARK  126  A    between atoms: _312  and  _314
REMARK  127  A    between atoms: _314  and  _315
REMARK  128  A    between atoms: _314  and  _317
REMARK  129  A    between atoms: _317  and  _318
REMARK  130  A    between atoms: _323  and  _325
REMARK  131  A    between atoms: _325  and  _326
REMARK  132  A    between atoms: _325  and  _328
REMARK  133  A    between atoms: _328  and  _329
REMARK  134  A    between atoms: _329  and  _330
REMARK  135  A    between atoms: _333  and  _335
REMARK  136  A    between atoms: _335  and  _336
REMARK  137  A    between atoms: _339  and  _341
REMARK  138  A    between atoms: _341  and  _342
REMARK  139  A    between atoms: _341  and  _344
REMARK  140  A    between atoms: _344  and  _345
REMARK  141  A    between atoms: _351  and  _353
REMARK  142  A    between atoms: _353  and  _354
REMARK  143  A    between atoms: _353  and  _356
REMARK  144  A    between atoms: _356  and  _357
REMARK  145  A    between atoms: _360  and  _362
REMARK  146  A    between atoms: _362  and  _363
REMARK  147  A    between atoms: _362  and  _365
REMARK  148  A    between atoms: _365  and  _366
REMARK  149  A    between atoms: _369  and  _371
REMARK  150  A    between atoms: _371  and  _372
REMARK  151  A    between atoms: _371  and  _374
REMARK  152  A    between atoms: _374  and  _375
REMARK  153  A    between atoms: _378  and  _380
REMARK  154  A    between atoms: _380  and  _381
REMARK  155  A    between atoms: _380  and  _383
REMARK  156  A    between atoms: _383  and  _384
REMARK  157  A    between atoms: _387  and  _389
REMARK  158  A    between atoms: _389  and  _390
REMARK  159  A    between atoms: _389  and  _392
REMARK  160  A    between atoms: _392  and  _393
REMARK  161  A    between atoms: _396  and  _398
REMARK  162  A    between atoms: _398  and  _399
REMARK  163  A    between atoms: _402  and  _404
REMARK  164  A    between atoms: _404  and  _405
REMARK  165  A    between atoms: _404  and  _407
REMARK  166  A    between atoms: _407  and  _408
REMARK  167  A    between atoms: _410  and  _412
REMARK  168  A    between atoms: _412  and  _413
REMARK  169  A    between atoms: _412  and  _415
REMARK  170  A    between atoms: _418  and  _420
REMARK  171  A    between atoms: _420  and  _421
REMARK  172  A    between atoms: _420  and  _423
REMARK  173  A    between atoms: _423  and  _424
REMARK  174  A    between atoms: _426  and  _428
REMARK  175  A    between atoms: _428  and  _429
REMARK  176  A    between atoms: _428  and  _431
REMARK  177  A    between atoms: _431  and  _432
REMARK  178  A    between atoms: _438  and  _440
REMARK  179  A    between atoms: _440  and  _441
REMARK  180  A    between atoms: _440  and  _443
REMARK  181  A    between atoms: _443  and  _444
REMARK  182  A    between atoms: _447  and  _449
REMARK  183  A    between atoms: _449  and  _450
REMARK  184  A    between atoms: _449  and  _452
REMARK  185  A    between atoms: _452  and  _453
REMARK  186  A    between atoms: _453  and  _454
REMARK  187  A    between atoms: _456  and  _458
REMARK  188  A    between atoms: _458  and  _459
REMARK  189  A    between atoms: _461  and  _463
REMARK  190  A    between atoms: _463  and  _464
REMARK  191  A    between atoms: _463  and  _466
REMARK  192  A    between atoms: _466  and  _467
REMARK  193  A    between atoms: _470  and  _472
REMARK  194  A    between atoms: _472  and  _473
REMARK  195  A    between atoms: _472  and  _475
REMARK  196  A    between atoms: _475  and  _476
REMARK  197  A    between atoms: _482  and  _484
REMARK  198  A    between atoms: _484  and  _485
REMARK  199  A    between atoms: _487  and  _489
REMARK  200  A    between atoms: _489  and  _490
REMARK  201  A    between atoms: _489  and  _492
REMARK  202  A    between atoms: _492  and  _493
REMARK  203  A    between atoms: _493  and  _494
REMARK  204  A    between atoms: _494  and  _495
REMARK  205  A    between atoms: _495  and  _496
REMARK  206  A    between atoms: _500  and  _502
REMARK  207  A    between atoms: _502  and  _503
REMARK  208  A    between atoms: _505  and  _507
REMARK  209  A    between atoms: _507  and  _508
REMARK  210  A    between atoms: _507  and  _510
REMARK  211  A    between atoms: _513  and  _515
REMARK  212  A    between atoms: _515  and  _516
REMARK  213  A    between atoms: _518  and  _520
REMARK  214  A    between atoms: _520  and  _521
REMARK  215  A    between atoms: _520  and  _523
REMARK  216  A    between atoms: _523  and  _524
REMARK                            x       y       z     vdW  Elec       q    Type
REMARK                         _______ _______ _______ _____ _____    ______ ____
ROOT
ATOM      1  C   GLY A   3      26.361  -9.090 -14.021  0.00  0.00    +0.243 C 
ATOM      2  N   SER A   4      25.490  -8.301 -13.348  0.00  0.00    -0.295 N 
ATOM      3  H   SER A   4      24.690  -8.746 -12.855  0.00  0.00    +0.150 HD
ATOM      4  O   GLY A   3      27.338  -8.638 -14.631  0.00  0.00    -0.273 OA
ENDROOT
BRANCH   2   5
ATOM      5  CA  SER A   4      25.633  -6.837 -13.287  0.00  0.00    +0.178 C 
BRANCH   5   6
ATOM      6  C   SER A   4      25.438  -6.298 -11.875  0.00  0.00    +0.243 C 
ATOM      7  N   TYR A   5      25.926  -7.054 -10.864  0.00  0.00    -0.297 N 
ATOM      8  H   TYR A   5      26.425  -7.942 -11.076  0.00  0.00    +0.150 HD
ATOM      9  O   SER A   4      24.894  -5.198 -11.689  0.00  0.00    -0.273 OA
BRANCH   7  10
ATOM     10  CA  TYR A   5      25.755  -6.627  -9.472  0.00  0.00    +0.153 C 
BRANCH  10  11
ATOM     11  C   TYR A   5      26.960  -7.068  -8.650  0.00  0.00    +0.241 C 
ATOM     12  O   TYR A   5      26.862  -7.976  -7.822  0.00  0.00    -0.273 OA
ATOM     13  N   ALA A   6      28.106  -6.428  -8.894  0.00  0.00    -0.298 N 
ATOM     14  H   ALA A   6      28.137  -5.695  -9.631  0.00  0.00    +0.150 HD
BRANCH  13  15
ATOM     15  CA  ALA A   6      29.318  -6.744  -8.140  0.00  0.00    +0.137 C 
ATOM     16  CB  ALA A   6      30.519  -6.003  -8.744  0.00  0.00    +0.030 C 
BRANCH  15  17
ATOM     17  C   ALA A   6      29.157  -6.347  -6.661  0.00  0.00    +0.227 C 
ATOM     18  O   ALA A   6      28.529  -5.323  -6.390  0.00  0.00    -0.286 OA
ENDBRANCH  15  17
ENDBRANCH  13  15
ENDBRANCH  10  11
BRANCH  10  19
ATOM     19  CB  TYR A   5      24.444  -7.182  -8.895  0.00  0.00    +0.055 C 
BRANCH  19  20
ATOM     20  CG  TYR A   5      23.800  -6.247  -7.896  0.00  0.00    -0.020 A 
ATOM     21  CD2 TYR A   5      23.602  -6.637  -6.571  0.00  0.00    -0.001 A 
ATOM     22  CE2 TYR A   5      22.927  -5.811  -5.667  0.00  0.00    +0.036 A 
ATOM     23  CZ  TYR A   5      22.480  -4.562  -6.082  0.00  0.00    +0.134 A 
ATOM     24  CE1 TYR A   5      22.682  -4.151  -7.393  0.00  0.00    +0.036 A 
ATOM     25  CD1 TYR A   5      23.329  -4.995  -8.291  0.00  0.00    -0.001 A 
BRANCH  23  26
ATOM     26  OH  TYR A   5      21.768  -3.747  -5.237  0.00  0.00    -0.506 OA
ATOM     27  HH  TYR A   5      20.937  -4.208  -4.958  0.00  0.00    +0.292 HD
ENDBRANCH  23  26
ENDBRANCH  19  20
ENDBRANCH  10  19
ENDBRANCH   7  10
ENDBRANCH   5   6
BRANCH   5  28
ATOM     28  CB  SER A   4      24.671  -6.140 -14.261  0.00  0.00    +0.166 C 
BRANCH  28  29
ATOM     29  OG  SER A   4      24.879  -6.592 -15.593  0.00  0.00    -0.380 OA
ATOM     30  H   SER A   4      24.248  -6.129 -16.200  0.00  0.00    +0.211 HD
ENDBRANCH  28  29
ENDBRANCH   5  28
ENDBRANCH   2   5
BRANCH   1  31
ATOM     31  CA  GLY A   3      26.110 -10.589 -14.017  0.00  0.00    +0.176 C 
BRANCH  31  33
ATOM     32  C   GLU A   2      23.749 -11.114 -14.312  0.00  0.00    +0.241 C 
ATOM     33  N   GLY A   3      24.787 -10.963 -13.514  0.00  0.00    -0.295 N 
ATOM     34  H   GLY A   3      24.662 -11.115 -12.493  0.00  0.00    +0.150 HD
ATOM     35  O   GLU A   2      23.787 -10.926 -15.529  0.00  0.00    -0.273 OA
BRANCH  32  36
ATOM     36  CA  GLU A   2      22.417 -11.444 -13.625  0.00  0.00    +0.149 C 
BRANCH  36  38
ATOM     37  C   THR A   1      22.450 -13.846 -13.301  0.00  0.00    +0.241 C 
ATOM     38  N   GLU A   2      22.528 -12.621 -12.770  0.00  0.00    -0.297 N 
ATOM     39  H   GLU A   2      22.668 -12.507 -11.746  0.00  0.00    +0.150 HD
ATOM     40  O   THR A   1      22.313 -14.040 -14.521  0.00  0.00    -0.274 OA
BRANCH  37  41
ATOM     41  CA  THR A   1      22.533 -15.020 -12.332  0.00  0.00    +0.172 C 
BRANCH  41  42
ATOM     42  N   THR A   1      22.095 -16.216 -13.042  0.00  0.00    -0.236 NA
ATOM     43  H   THR A   1      22.423 -16.361 -14.018  0.00  0.00    +0.142 HD
ENDBRANCH  41  42
BRANCH  41  44
ATOM     44  CB  THR A   1      23.910 -15.192 -11.698  0.00  0.00    +0.135 C 
ATOM     45  CG2 THR A   1      25.055 -15.126 -12.729  0.00  0.00    +0.034 C 
BRANCH  44  46
ATOM     46  OG1 THR A   1      24.034 -14.151 -10.717  0.00  0.00    -0.383 OA
ATOM     47  HG1 THR A   1      23.316 -14.248 -10.042  0.00  0.00    +0.210 HD
ENDBRANCH  44  46
ENDBRANCH  41  44
ENDBRANCH  37  41
ENDBRANCH  36  38
BRANCH  36  48
ATOM     48  CB  GLU A   2      21.923 -10.251 -12.812  0.00  0.00    +0.041 C 
BRANCH  48  49
ATOM     49  CG  GLU A   2      21.620  -9.034 -13.652  0.00  0.00    +0.116 C 
BRANCH  49  50
ATOM     50  CD  GLU A   2      21.705  -7.741 -12.860  0.00  0.00    +0.365 C 
ATOM     51  OE2 GLU A   2      22.509  -7.689 -11.894  0.00  0.00    -0.246 OA
ATOM     52  OE1 GLU A   2      21.020  -6.767 -13.256  0.00  0.00    -0.246 OA
ENDBRANCH  49  50
ENDBRANCH  48  49
ENDBRANCH  36  48
ENDBRANCH  32  36
ENDBRANCH  31  33
ENDBRANCH   1  31
TORSDOF 22
REMARK  Name = ../refined-set-2016/4pp0/4pp0_pocket.pdb
REMARK  216 active torsions:
REMARK  status: ('A' for Active; 'I' for Inactive)
REMARK    1  A    between atoms: _1  and  _3
REMARK    2  A    between atoms: _3  and  _4
REMARK    3  A    between atoms: _3  and  _6
REMARK    4  A    between atoms: _6  and  _7
REMARK    5  A    between atoms: _10  and  _12
REMARK    6  A    between atoms: _12  and  _13
REMARK    7  A    between atoms: _12  and  _15
REMARK    8  A    between atoms: _15  and  _16
REMARK    9  A    between atoms: _16  and  _17
REMARK   10  A    between atoms: _20  and  _22
REMARK   11  A    between atoms: _22  and  _23
REMARK   12  A    between atoms: _25  and  _27
REMARK   13  A    between atoms: _27  and  _28
REMARK   14  A    between atoms: _27  and  _30
REMARK   15  A    between atoms: _30  and  _31
REMARK   16  A    between atoms: _33  and  _35
REMARK   17  A    between atoms: _35  and  _36
REMARK   18  A    between atoms: _35  and  _38
REMARK   19  A    between atoms: _38  and  _39
REMARK   20  A    between atoms: _44  and  _45
REMARK   21  A    between atoms: _47  and  _49
REMARK   22  A    between atoms: _49  and  _50
REMARK   23  A    between atoms: _53  and  _55
REMARK   24  A    between atoms: _55  and  _56
REMARK   25  A    between atoms: _55  and  _58
REMARK   26  A    between atoms: _58  and  _59
REMARK   27  A    between atoms: _64  and  _65
REMARK   28  A    between atoms: _67  and  _69
REMARK   29  A    between atoms: _69  and  _70
REMARK   30  A    between atoms: _69  and  _72
REMARK   31  A    between atoms: _72  and  _73
REMARK   32  A    between atoms: _78  and  _80
REMARK   33  A    between atoms: _80  and  _81
REMARK   34  A    between atoms: _80  and  _83
REMARK   35  A    between atoms: _83  and  _84
REMARK   36  A    between atoms: _87  and  _89
REMARK   37  A    between atoms: _89  and  _90
REMARK   38  A    between atoms: _89  and  _92
REMARK   39  A    between atoms: _92  and  _93
REMARK   40  A    between atoms: _93  and  _94
REMARK   41  A    between atoms: _99  and  _101
REMARK   42  A    between atoms: _101  and  _102
REMARK   43  A    between atoms: _101  and  _104
REMARK   44  A    between atoms: _104  and  _105
REMARK   45  A    between atoms: _115  and  _117
REMARK   46  A    between atoms: _117  and  _118
REMARK   47  A    between atoms: _117  and  _120
REMARK   48  A    between atoms: _120  and  _121
REMARK   49  A    between atoms: _124  and  _126
REMARK   50  A    between atoms: _126  and  _127
REMARK   51  A    between atoms: _126  and  _129
REMARK   52  A    between atoms: _129  and  _130
REMARK   53  A    between atoms: _133  and  _135
REMARK   54  A    between atoms: _135  and  _136
REMARK   55  A    between atoms: _135  and  _138
REMARK   56  A    between atoms: _138  and  _139
REMARK   57  A    between atoms: _139  and  _140
REMARK   58  A    between atoms: _142  and  _144
REMARK   59  A    between atoms: _144  and  _145
REMARK   60  A    between atoms: _148  and  _150
REMARK   61  A    between atoms: _150  and  _151
REMARK   62  A    between atoms: _154  and  _156
REMARK   63  A    between atoms: _156  and  _157
REMARK   64  A    between atoms: _156  and  _159
REMARK   65  A    between atoms: _159  and  _160
REMARK   66  A    between atoms: _160  and  _161
REMARK   67  A    between atoms: _163  and  _165
REMARK   68  A    between atoms: _165  and  _166
REMARK   69  A    between atoms: _168  and  _170
REMARK   70  A    between atoms: _170  and  _171
REMARK   71  A    between atoms: _170  and  _173
REMARK   72  A    between atoms: _173  and  _174
REMARK   73  A    between atoms: _177  and  _179
REMARK   74  A    between atoms: _179  and  _180
REMARK   75  A    between atoms: _179  and  _182
REMARK   76  A    between atoms: _182  and  _183
REMARK   77  A    between atoms: _183  and  _184
REMARK   78  A    between atoms: _189  and  _191
REMARK   79  A    between atoms: _191  and  _192
REMARK   80  A    between atoms: _191  and  _194
REMARK   81  A    between atoms: _194  and  _195
REMARK   82  A    between atoms: _195  and  _196
REMARK   83  A    between atoms: _196  and  _197
REMARK   84  A    between atoms: _206  and  _208
REMARK   85  A    between atoms: _208  and  _209
REMARK   86  A    between atoms: _208  and  _211
REMARK   87  A    between atoms: _211  and  _212
REMARK   88  A    between atoms: _218  and  _220
REMARK   89  A    between atoms: _220  and  _221
REMARK   90  A    between atoms: _220  and  _223
REMARK   91  A    between atoms: _223  and  _224
REMARK   92  A    between atoms: _227  and  _229
REMARK   93  A    between atoms: _229  and  _230
REMARK   94  A    between atoms: _229  and  _232
REMARK   95  A    between atoms: _232  and  _233
REMARK   96  A    between atoms: _236  and  _238
REMARK   97  A    between atoms: _238  and  _239
REMARK   98  A    between atoms: _238  and  _241
REMARK   99  A    between atoms: _241  and  _242
REMARK  100  A    between atoms: _246  and  _247
REMARK  101  A    between atoms: _252  and  _254
REMARK  102  A    between atoms: _254  and  _255
REMARK  103  A    between atoms: _254  and  _257
REMARK  104  A    between atoms: _257  and  _258
REMARK  105  A    between atoms: _263  and  _265
REMARK  106  A    between atoms: _265  and  _266
REMARK  107  A    between atoms: _265  and  _268
REMARK  108  A    between atoms: _268  and  _269
REMARK  109  A    between atoms: _272  and  _274
REMARK  110  A    between atoms: _274  and  _275
REMARK  111  A    between atoms: _274  and  _277
REMARK  112  A    between atoms: _277  and  _278
REMARK  113  A    between atoms: _278  and  _279
REMARK  114  A    between atoms: _284  and  _286
REMARK  115  A    between atoms: _286  and  _287
REMARK  116  A    between atoms: _290  and  _292
REMARK  117  A    between atoms: _292  and  _293
REMARK  118  A    between atoms: _295  and  _297
REMARK  119  A    between atoms: _297  and  _298
REMARK  120  A    between atoms: _297  and  _300
REMARK  121  A    between atoms: _300  and  _301
REMARK  122  A    between atoms: _304  and  _306
REMARK  123  A    between atoms: _306  and  _307
REMARK  124  A    between atoms: _306  and  _309
REMARK  125  A    between atoms: _309  and  _310
REMARK  126  A    between atoms: _312  and  _314
REMARK  127  A    between atoms: _314  and  _315
REMARK  128  A    between atoms: _314  and  _317
REMARK  129  A    between atoms: _317  and  _318
REMARK  130  A    between atoms: _323  and  _325
REMARK  131  A    between atoms: _325  and  _326
REMARK  132  A    between atoms: _325  and  _328
REMARK  133  A    between atoms: _328  and  _329
REMARK  134  A    between atoms: _329  and  _330
REMARK  135  A    between atoms: _333  and  _335
REMARK  136  A    between atoms: _335  and  _336
REMARK  137  A    between atoms: _339  and  _341
REMARK  138  A    between atoms: _341  and  _342
REMARK  139  A    between atoms: _341  and  _344
REMARK  140  A    between atoms: _344  and  _345
REMARK  141  A    between atoms: _351  and  _353
REMARK  142  A    between atoms: _353  and  _354
REMARK  143  A    between atoms: _353  and  _356
REMARK  144  A    between atoms: _356  and  _357
REMARK  145  A    between atoms: _360  and  _362
REMARK  146  A    between atoms: _362  and  _363
REMARK  147  A    between atoms: _362  and  _365
REMARK  148  A    between atoms: _365  and  _366
REMARK  149  A    between atoms: _369  and  _371
REMARK  150  A    between atoms: _371  and  _372
REMARK  151  A    between atoms: _371  and  _374
REMARK  152  A    between atoms: _374  and  _375
REMARK  153  A    between atoms: _378  and  _380
REMARK  154  A    between atoms: _380  and  _381
REMARK  155  A    between atoms: _380  and  _383
REMARK  156  A    between atoms: _383  and  _384
REMARK  157  A    between atoms: _387  and  _389
REMARK  158  A    between atoms: _389  and  _390
REMARK  159  A    between atoms: _389  and  _392
REMARK  160  A    between atoms: _392  and  _393
REMARK  161  A    between atoms: _396  and  _398
REMARK  162  A    between atoms: _398  and  _399
REMARK  163  A    between atoms: _402  and  _404
REMARK  164  A    between atoms: _404  and  _405
REMARK  165  A    between atoms: _404  and  _407
REMARK  166  A    between atoms: _407  and  _408
REMARK  167  A    between atoms: _410  and  _412
REMARK  168  A    between atoms: _412  and  _413
REMARK  169  A    between atoms: _412  and  _415
REMARK  170  A    between atoms: _418  and  _420
REMARK  171  A    between atoms: _420  and  _421
REMARK  172  A    between atoms: _420  and  _423
REMARK  173  A    between atoms: _423  and  _424
REMARK  174  A    between atoms: _426  and  _428
REMARK  175  A    between atoms: _428  and  _429
REMARK  176  A    between atoms: _428  and  _431
REMARK  177  A    between atoms: _431  and  _432
REMARK  178  A    between atoms: _438  and  _440
REMARK  179  A    between atoms: _440  and  _441
REMARK  180  A    between atoms: _440  and  _443
REMARK  181  A    between atoms: _443  and  _444
REMARK  182  A    between atoms: _447  and  _449
REMARK  183  A    between atoms: _449  and  _450
REMARK  184  A    between atoms: _449  and  _452
REMARK  185  A    between atoms: _452  and  _453
REMARK  186  A    between atoms: _453  and  _454
REMARK  187  A    between atoms: _456  and  _458
REMARK  188  A    between atoms: _458  and  _459
REMARK  189  A    between atoms: _461  and  _463
REMARK  190  A    between atoms: _463  and  _464
REMARK  191  A    between atoms: _463  and  _466
REMARK  192  A    between atoms: _466  and  _467
REMARK  193  A    between atoms: _470  and  _472
REMARK  194  A    between atoms: _472  and  _473
REMARK  195  A    between atoms: _472  and  _475
REMARK  196  A    between atoms: _475  and  _476
REMARK  197  A    between atoms: _482  and  _484
REMARK  198  A    between atoms: _484  and  _485
REMARK  199  A    between atoms: _487  and  _489
REMARK  200  A    between atoms: _489  and  _490
REMARK  201  A    between atoms: _489  and  _492
REMARK  202  A    between atoms: _492  and  _493
REMARK  203  A    between atoms: _493  and  _494
REMARK  204  A    between atoms: _494  and  _495
REMARK  205  A    between atoms: _495  and  _496
REMARK  206  A    between atoms: _500  and  _502
REMARK  207  A    between atoms: _502  and  _503
REMARK  208  A    between atoms: _505  and  _507
REMARK  209  A    between atoms: _507  and  _508
REMARK  210  A    between atoms: _507  and  _510
REMARK  211  A    between atoms: _513  and  _515
REMARK  212  A    between atoms: _515  and  _516
REMARK  213  A    between atoms: _518  and  _520
REMARK  214  A    between atoms: _520  and  _521
REMARK  215  A    between atoms: _520  and  _523
REMARK  216  A    between atoms: _523  and  _524
REMARK                            x       y       z     vdW  Elec       q    Type
REMARK                         _______ _______ _______ _____ _____    ______ ____
ROOT
ATOM      1  C   TYR A   1      27.743 -11.575  -7.138  0.00  0.00    +0.239 C 
ATOM      2  O   TYR A   1      27.963 -12.781  -7.109  0.00  0.00    -0.274 OA
ATOM      3  N   ASN A   2      27.580 -10.892  -8.279  0.00  0.00    -0.298 N 
ATOM      4  H   ASN A   2      27.401  -9.868  -8.240  0.00  0.00    +0.150 HD
ENDROOT
BRANCH   1   5
ATOM      5  CA  TYR A   1      27.587 -10.782  -5.823  0.00  0.00    +0.149 C 
BRANCH   5   6
ATOM      6  N   TYR A   1      28.383  -9.557  -5.871  0.00  0.00    -0.238 NA
ATOM      7  H   TYR A   1      27.912  -8.635  -5.966  0.00  0.00    +0.142 HD
ENDBRANCH   5   6
BRANCH   5   8
ATOM      8  CB  TYR A   1      26.105 -10.438  -5.726  0.00  0.00    +0.053 C 
BRANCH   8   9
ATOM      9  CG  TYR A   1      25.578 -10.097  -4.358  0.00  0.00    -0.020 A 
ATOM     10  CD2 TYR A   1      25.011 -11.084  -3.547  0.00  0.00    -0.001 A 
ATOM     11  CE2 TYR A   1      24.376 -10.760  -2.352  0.00  0.00    +0.036 A 
ATOM     12  CZ  TYR A   1      24.280  -9.439  -1.958  0.00  0.00    +0.134 A 
ATOM     13  CE1 TYR A   1      24.817  -8.430  -2.750  0.00  0.00    +0.036 A 
ATOM     14  CD1 TYR A   1      25.481  -8.769  -3.939  0.00  0.00    -0.001 A 
BRANCH  12  15
ATOM     15  OH  TYR A   1      23.636  -9.158  -0.773  0.00  0.00    -0.506 OA
ATOM     16  HH  TYR A   1      24.262  -8.698  -0.160  0.00  0.00    +0.292 HD
ENDBRANCH  12  15
ENDBRANCH   8   9
ENDBRANCH   5   8
ENDBRANCH   1   5
BRANCH   3  17
ATOM     17  CA  ASN A   2      27.649 -11.559  -9.579  0.00  0.00    +0.146 C 
BRANCH  17  18
ATOM     18  C   ASN A   2      27.971 -10.525 -10.621  0.00  0.00    +0.227 C 
ATOM     19  O   ASN A   2      27.283  -9.513 -10.735  0.00  0.00    -0.286 OA
ENDBRANCH  17  18
BRANCH  17  20
ATOM     20  CB  ASN A   2      26.332 -12.297  -9.915  0.00  0.00    +0.112 C 
BRANCH  20  21
ATOM     21  CG  ASN A   2      25.065 -11.471  -9.785  0.00  0.00    +0.222 C 
ATOM     22  ND2 ASN A   2      24.482 -11.462  -8.596  0.00  0.00    -0.329 N 
ATOM     23 HD21 ASN A   2      24.923 -11.961  -7.797  0.00  0.00    +0.145 HD
ATOM     24 HD22 ASN A   2      23.583 -10.956  -8.461  0.00  0.00    +0.145 HD
ATOM     25  OD1 ASN A   2      24.572 -10.894 -10.745  0.00  0.00    -0.275 OA
ENDBRANCH  20  21
ENDBRANCH  17  20
ENDBRANCH   3  17
TORSDOF 9
REMARK  Name = ../refined-set-2016/4pp0/4pp0_pocket.pdb
REMARK  216 active torsions:
REMARK  status: ('A' for Active; 'I' for Inactive)
REMARK    1  A    between atoms: _1  and  _3
REMARK    2  A    between atoms: _3  and  _4
REMARK    3  A    between atoms: _3  and  _6
REMARK    4  A    between atoms: _6  and  _7
REMARK    5  A    between atoms: _10  and  _12
REMARK    6  A    between atoms: _12  and  _13
REMARK    7  A    between atoms: _12  and  _15
REMARK    8  A    between atoms: _15  and  _16
REMARK    9  A    between atoms: _16  and  _17
REMARK   10  A    between atoms: _20  and  _22
REMARK   11  A    between atoms: _22  and  _23
REMARK   12  A    between atoms: _25  and  _27
REMARK   13  A    between atoms: _27  and  _28
REMARK   14  A    between atoms: _27  and  _30
REMARK   15  A    between atoms: _30  and  _31
REMARK   16  A    between atoms: _33  and  _35
REMARK   17  A    between atoms: _35  and  _36
REMARK   18  A    between atoms: _35  and  _38
REMARK   19  A    between atoms: _38  and  _39
REMARK   20  A    between atoms: _44  and  _45
REMARK   21  A    between atoms: _47  and  _49
REMARK   22  A    between atoms: _49  and  _50
REMARK   23  A    between atoms: _53  and  _55
REMARK   24  A    between atoms: _55  and  _56
REMARK   25  A    between atoms: _55  and  _58
REMARK   26  A    between atoms: _58  and  _59
REMARK   27  A    between atoms: _64  and  _65
REMARK   28  A    between atoms: _67  and  _69
REMARK   29  A    between atoms: _69  and  _70
REMARK   30  A    between atoms: _69  and  _72
REMARK   31  A    between atoms: _72  and  _73
REMARK   32  A    between atoms: _78  and  _80
REMARK   33  A    between atoms: _80  and  _81
REMARK   34  A    between atoms: _80  and  _83
REMARK   35  A    between atoms: _83  and  _84
REMARK   36  A    between atoms: _87  and  _89
REMARK   37  A    between atoms: _89  and  _90
REMARK   38  A    between atoms: _89  and  _92
REMARK   39  A    between atoms: _92  and  _93
REMARK   40  A    between atoms: _93  and  _94
REMARK   41  A    between atoms: _99  and  _101
REMARK   42  A    between atoms: _101  and  _102
REMARK   43  A    between atoms: _101  and  _104
REMARK   44  A    between atoms: _104  and  _105
REMARK   45  A    between atoms: _115  and  _117
REMARK   46  A    between atoms: _117  and  _118
REMARK   47  A    between atoms: _117  and  _120
REMARK   48  A    between atoms: _120  and  _121
REMARK   49  A    between atoms: _124  and  _126
REMARK   50  A    between atoms: _126  and  _127
REMARK   51  A    between atoms: _126  and  _129
REMARK   52  A    between atoms: _129  and  _130
REMARK   53  A    between atoms: _133  and  _135
REMARK   54  A    between atoms: _135  and  _136
REMARK   55  A    between atoms: _135  and  _138
REMARK   56  A    between atoms: _138  and  _139
REMARK   57  A    between atoms: _139  and  _140
REMARK   58  A    between atoms: _142  and  _144
REMARK   59  A    between atoms: _144  and  _145
REMARK   60  A    between atoms: _148  and  _150
REMARK   61  A    between atoms: _150  and  _151
REMARK   62  A    between atoms: _154  and  _156
REMARK   63  A    between atoms: _156  and  _157
REMARK   64  A    between atoms: _156  and  _159
REMARK   65  A    between atoms: _159  and  _160
REMARK   66  A    between atoms: _160  and  _161
REMARK   67  A    between atoms: _163  and  _165
REMARK   68  A    between atoms: _165  and  _166
REMARK   69  A    between atoms: _168  and  _170
REMARK   70  A    between atoms: _170  and  _171
REMARK   71  A    between atoms: _170  and  _173
REMARK   72  A    between atoms: _173  and  _174
REMARK   73  A    between atoms: _177  and  _179
REMARK   74  A    between atoms: _179  and  _180
REMARK   75  A    between atoms: _179  and  _182
REMARK   76  A    between atoms: _182  and  _183
REMARK   77  A    between atoms: _183  and  _184
REMARK   78  A    between atoms: _189  and  _191
REMARK   79  A    between atoms: _191  and  _192
REMARK   80  A    between atoms: _191  and  _194
REMARK   81  A    between atoms: _194  and  _195
REMARK   82  A    between atoms: _195  and  _196
REMARK   83  A    between atoms: _196  and  _197
REMARK   84  A    between atoms: _206  and  _208
REMARK   85  A    between atoms: _208  and  _209
REMARK   86  A    between atoms: _208  and  _211
REMARK   87  A    between atoms: _211  and  _212
REMARK   88  A    between atoms: _218  and  _220
REMARK   89  A    between atoms: _220  and  _221
REMARK   90  A    between atoms: _220  and  _223
REMARK   91  A    between atoms: _223  and  _224
REMARK   92  A    between atoms: _227  and  _229
REMARK   93  A    between atoms: _229  and  _230
REMARK   94  A    between atoms: _229  and  _232
REMARK   95  A    between atoms: _232  and  _233
REMARK   96  A    between atoms: _236  and  _238
REMARK   97  A    between atoms: _238  and  _239
REMARK   98  A    between atoms: _238  and  _241
REMARK   99  A    between atoms: _241  and  _242
REMARK  100  A    between atoms: _246  and  _247
REMARK  101  A    between atoms: _252  and  _254
REMARK  102  A    between atoms: _254  and  _255
REMARK  103  A    between atoms: _254  and  _257
REMARK  104  A    between atoms: _257  and  _258
REMARK  105  A    between atoms: _263  and  _265
REMARK  106  A    between atoms: _265  and  _266
REMARK  107  A    between atoms: _265  and  _268
REMARK  108  A    between atoms: _268  and  _269
REMARK  109  A    between atoms: _272  and  _274
REMARK  110  A    between atoms: _274  and  _275
REMARK  111  A    between atoms: _274  and  _277
REMARK  112  A    between atoms: _277  and  _278
REMARK  113  A    between atoms: _278  and  _279
REMARK  114  A    between atoms: _284  and  _286
REMARK  115  A    between atoms: _286  and  _287
REMARK  116  A    between atoms: _290  and  _292
REMARK  117  A    between atoms: _292  and  _293
REMARK  118  A    between atoms: _295  and  _297
REMARK  119  A    between atoms: _297  and  _298
REMARK  120  A    between atoms: _297  and  _300
REMARK  121  A    between atoms: _300  and  _301
REMARK  122  A    between atoms: _304  and  _306
REMARK  123  A    between atoms: _306  and  _307
REMARK  124  A    between atoms: _306  and  _309
REMARK  125  A    between atoms: _309  and  _310
REMARK  126  A    between atoms: _312  and  _314
REMARK  127  A    between atoms: _314  and  _315
REMARK  128  A    between atoms: _314  and  _317
REMARK  129  A    between atoms: _317  and  _318
REMARK  130  A    between atoms: _323  and  _325
REMARK  131  A    between atoms: _325  and  _326
REMARK  132  A    between atoms: _325  and  _328
REMARK  133  A    between atoms: _328  and  _329
REMARK  134  A    between atoms: _329  and  _330
REMARK  135  A    between atoms: _333  and  _335
REMARK  136  A    between atoms: _335  and  _336
REMARK  137  A    between atoms: _339  and  _341
REMARK  138  A    between atoms: _341  and  _342
REMARK  139  A    between atoms: _341  and  _344
REMARK  140  A    between atoms: _344  and  _345
REMARK  141  A    between atoms: _351  and  _353
REMARK  142  A    between atoms: _353  and  _354
REMARK  143  A    between atoms: _353  and  _356
REMARK  144  A    between atoms: _356  and  _357
REMARK  145  A    between atoms: _360  and  _362
REMARK  146  A    between atoms: _362  and  _363
REMARK  147  A    between atoms: _362  and  _365
REMARK  148  A    between atoms: _365  and  _366
REMARK  149  A    between atoms: _369  and  _371
REMARK  150  A    between atoms: _371  and  _372
REMARK  151  A    between atoms: _371  and  _374
REMARK  152  A    between atoms: _374  and  _375
REMARK  153  A    between atoms: _378  and  _380
REMARK  154  A    between atoms: _380  and  _381
REMARK  155  A    between atoms: _380  and  _383
REMARK  156  A    between atoms: _383  and  _384
REMARK  157  A    between atoms: _387  and  _389
REMARK  158  A    between atoms: _389  and  _390
REMARK  159  A    between atoms: _389  and  _392
REMARK  160  A    between atoms: _392  and  _393
REMARK  161  A    between atoms: _396  and  _398
REMARK  162  A    between atoms: _398  and  _399
REMARK  163  A    between atoms: _402  and  _404
REMARK  164  A    between atoms: _404  and  _405
REMARK  165  A    between atoms: _404  and  _407
REMARK  166  A    between atoms: _407  and  _408
REMARK  167  A    between atoms: _410  and  _412
REMARK  168  A    between atoms: _412  and  _413
REMARK  169  A    between atoms: _412  and  _415
REMARK  170  A    between atoms: _418  and  _420
REMARK  171  A    between atoms: _420  and  _421
REMARK  172  A    between atoms: _420  and  _423
REMARK  173  A    between atoms: _423  and  _424
REMARK  174  A    between atoms: _426  and  _428
REMARK  175  A    between atoms: _428  and  _429
REMARK  176  A    between atoms: _428  and  _431
REMARK  177  A    between atoms: _431  and  _432
REMARK  178  A    between atoms: _438  and  _440
REMARK  179  A    between atoms: _440  and  _441
REMARK  180  A    between atoms: _440  and  _443
REMARK  181  A    between atoms: _443  and  _444
REMARK  182  A    between atoms: _447  and  _449
REMARK  183  A    between atoms: _449  and  _450
REMARK  184  A    between atoms: _449  and  _452
REMARK  185  A    between atoms: _452  and  _453
REMARK  186  A    between atoms: _453  and  _454
REMARK  187  A    between atoms: _456  and  _458
REMARK  188  A    between atoms: _458  and  _459
REMARK  189  A    between atoms: _461  and  _463
REMARK  190  A    between atoms: _463  and  _464
REMARK  191  A    between atoms: _463  and  _466
REMARK  192  A    between atoms: _466  and  _467
REMARK  193  A    between atoms: _470  and  _472
REMARK  194  A    between atoms: _472  and  _473
REMARK  195  A    between atoms: _472  and  _475
REMARK  196  A    between atoms: _475  and  _476
REMARK  197  A    between atoms: _482  and  _484
REMARK  198  A    between atoms: _484  and  _485
REMARK  199  A    between atoms: _487  and  _489
REMARK  200  A    between atoms: _489  and  _490
REMARK  201  A    between atoms: _489  and  _492
REMARK  202  A    between atoms: _492  and  _493
REMARK  203  A    between atoms: _493  and  _494
REMARK  204  A    between atoms: _494  and  _495
REMARK  205  A    between atoms: _495  and  _496
REMARK  206  A    between atoms: _500  and  _502
REMARK  207  A    between atoms: _502  and  _503
REMARK  208  A    between atoms: _505  and  _507
REMARK  209  A    between atoms: _507  and  _508
REMARK  210  A    between atoms: _507  and  _510
REMARK  211  A    between atoms: _513  and  _515
REMARK  212  A    between atoms: _515  and  _516
REMARK  213  A    between atoms: _518  and  _520
REMARK  214  A    between atoms: _520  and  _521
REMARK  215  A    between atoms: _520  and  _523
REMARK  216  A    between atoms: _523  and  _524
REMARK                            x       y       z     vdW  Elec       q    Type
REMARK                         _______ _______ _______ _____ _____    ______ ____
ROOT
ATOM      1  CA  ASP A   1      26.819 -15.890  -5.735  0.00  0.00    +0.144 C 
ENDROOT
BRANCH   1   2
ATOM      2  N   ASP A   1      27.907 -14.968  -5.338  0.00  0.00    -0.239 NA
ATOM      3  H   ASP A   1      27.901 -13.993  -5.699  0.00  0.00    +0.142 HD
ENDBRANCH   1   2
BRANCH   1   4
ATOM      4  C   ASP A   1      27.353 -17.112  -6.503  0.00  0.00    +0.225 C 
ATOM      5  O   ASP A   1      26.858 -18.229  -6.324  0.00  0.00    -0.287 OA
ENDBRANCH   1   4
BRANCH   1   6
ATOM      6  CB  ASP A   1      25.791 -15.173  -6.604  0.00  0.00    +0.139 C 
BRANCH   6   7
ATOM      7  CG  ASP A   1      24.832 -14.295  -5.838  0.00  0.00    +0.367 C 
ATOM      8  OD2 ASP A   1      24.613 -14.561  -4.612  0.00  0.00    -0.246 OA
ATOM      9  OD1 ASP A   1      24.268 -13.378  -6.458  0.00  0.00    -0.246 OA
ENDBRANCH   6   7
ENDBRANCH   1   6
TORSDOF 4
REMARK  Name = ../refined-set-2016/4pp0/4pp0_pocket.pdb
REMARK  216 active torsions:
REMARK  status: ('A' for Active; 'I' for Inactive)
REMARK    1  A    between atoms: _1  and  _3
REMARK    2  A    between atoms: _3  and  _4
REMARK    3  A    between atoms: _3  and  _6
REMARK    4  A    between atoms: _6  and  _7
REMARK    5  A    between atoms: _10  and  _12
REMARK    6  A    between atoms: _12  and  _13
REMARK    7  A    between atoms: _12  and  _15
REMARK    8  A    between atoms: _15  and  _16
REMARK    9  A    between atoms: _16  and  _17
REMARK   10  A    between atoms: _20  and  _22
REMARK   11  A    between atoms: _22  and  _23
REMARK   12  A    between atoms: _25  and  _27
REMARK   13  A    between atoms: _27  and  _28
REMARK   14  A    between atoms: _27  and  _30
REMARK   15  A    between atoms: _30  and  _31
REMARK   16  A    between atoms: _33  and  _35
REMARK   17  A    between atoms: _35  and  _36
REMARK   18  A    between atoms: _35  and  _38
REMARK   19  A    between atoms: _38  and  _39
REMARK   20  A    between atoms: _44  and  _45
REMARK   21  A    between atoms: _47  and  _49
REMARK   22  A    between atoms: _49  and  _50
REMARK   23  A    between atoms: _53  and  _55
REMARK   24  A    between atoms: _55  and  _56
REMARK   25  A    between atoms: _55  and  _58
REMARK   26  A    between atoms: _58  and  _59
REMARK   27  A    between atoms: _64  and  _65
REMARK   28  A    between atoms: _67  and  _69
REMARK   29  A    between atoms: _69  and  _70
REMARK   30  A    between atoms: _69  and  _72
REMARK   31  A    between atoms: _72  and  _73
REMARK   32  A    between atoms: _78  and  _80
REMARK   33  A    between atoms: _80  and  _81
REMARK   34  A    between atoms: _80  and  _83
REMARK   35  A    between atoms: _83  and  _84
REMARK   36  A    between atoms: _87  and  _89
REMARK   37  A    between atoms: _89  and  _90
REMARK   38  A    between atoms: _89  and  _92
REMARK   39  A    between atoms: _92  and  _93
REMARK   40  A    between atoms: _93  and  _94
REMARK   41  A    between atoms: _99  and  _101
REMARK   42  A    between atoms: _101  and  _102
REMARK   43  A    between atoms: _101  and  _104
REMARK   44  A    between atoms: _104  and  _105
REMARK   45  A    between atoms: _115  and  _117
REMARK   46  A    between atoms: _117  and  _118
REMARK   47  A    between atoms: _117  and  _120
REMARK   48  A    between atoms: _120  and  _121
REMARK   49  A    between atoms: _124  and  _126
REMARK   50  A    between atoms: _126  and  _127
REMARK   51  A    between atoms: _126  and  _129
REMARK   52  A    between atoms: _129  and  _130
REMARK   53  A    between atoms: _133  and  _135
REMARK   54  A    between atoms: _135  and  _136
REMARK   55  A    between atoms: _135  and  _138
REMARK   56  A    between atoms: _138  and  _139
REMARK   57  A    between atoms: _139  and  _140
REMARK   58  A    between atoms: _142  and  _144
REMARK   59  A    between atoms: _144  and  _145
REMARK   60  A    between atoms: _148  and  _150
REMARK   61  A    between atoms: _150  and  _151
REMARK   62  A    between atoms: _154  and  _156
REMARK   63  A    between atoms: _156  and  _157
REMARK   64  A    between atoms: _156  and  _159
REMARK   65  A    between atoms: _159  and  _160
REMARK   66  A    between atoms: _160  and  _161
REMARK   67  A    between atoms: _163  and  _165
REMARK   68  A    between atoms: _165  and  _166
REMARK   69  A    between atoms: _168  and  _170
REMARK   70  A    between atoms: _170  and  _171
REMARK   71  A    between atoms: _170  and  _173
REMARK   72  A    between atoms: _173  and  _174
REMARK   73  A    between atoms: _177  and  _179
REMARK   74  A    between atoms: _179  and  _180
REMARK   75  A    between atoms: _179  and  _182
REMARK   76  A    between atoms: _182  and  _183
REMARK   77  A    between atoms: _183  and  _184
REMARK   78  A    between atoms: _189  and  _191
REMARK   79  A    between atoms: _191  and  _192
REMARK   80  A    between atoms: _191  and  _194
REMARK   81  A    between atoms: _194  and  _195
REMARK   82  A    between atoms: _195  and  _196
REMARK   83  A    between atoms: _196  and  _197
REMARK   84  A    between atoms: _206  and  _208
REMARK   85  A    between atoms: _208  and  _209
REMARK   86  A    between atoms: _208  and  _211
REMARK   87  A    between atoms: _211  and  _212
REMARK   88  A    between atoms: _218  and  _220
REMARK   89  A    between atoms: _220  and  _221
REMARK   90  A    between atoms: _220  and  _223
REMARK   91  A    between atoms: _223  and  _224
REMARK   92  A    between atoms: _227  and  _229
REMARK   93  A    between atoms: _229  and  _230
REMARK   94  A    between atoms: _229  and  _232
REMARK   95  A    between atoms: _232  and  _233
REMARK   96  A    between atoms: _236  and  _238
REMARK   97  A    between atoms: _238  and  _239
REMARK   98  A    between atoms: _238  and  _241
REMARK   99  A    between atoms: _241  and  _242
REMARK  100  A    between atoms: _246  and  _247
REMARK  101  A    between atoms: _252  and  _254
REMARK  102  A    between atoms: _254  and  _255
REMARK  103  A    between atoms: _254  and  _257
REMARK  104  A    between atoms: _257  and  _258
REMARK  105  A    between atoms: _263  and  _265
REMARK  106  A    between atoms: _265  and  _266
REMARK  107  A    between atoms: _265  and  _268
REMARK  108  A    between atoms: _268  and  _269
REMARK  109  A    between atoms: _272  and  _274
REMARK  110  A    between atoms: _274  and  _275
REMARK  111  A    between atoms: _274  and  _277
REMARK  112  A    between atoms: _277  and  _278
REMARK  113  A    between atoms: _278  and  _279
REMARK  114  A    between atoms: _284  and  _286
REMARK  115  A    between atoms: _286  and  _287
REMARK  116  A    between atoms: _290  and  _292
REMARK  117  A    between atoms: _292  and  _293
REMARK  118  A    between atoms: _295  and  _297
REMARK  119  A    between atoms: _297  and  _298
REMARK  120  A    between atoms: _297  and  _300
REMARK  121  A    between atoms: _300  and  _301
REMARK  122  A    between atoms: _304  and  _306
REMARK  123  A    between atoms: _306  and  _307
REMARK  124  A    between atoms: _306  and  _309
REMARK  125  A    between atoms: _309  and  _310
REMARK  126  A    between atoms: _312  and  _314
REMARK  127  A    between atoms: _314  and  _315
REMARK  128  A    between atoms: _314  and  _317
REMARK  129  A    between atoms: _317  and  _318
REMARK  130  A    between atoms: _323  and  _325
REMARK  131  A    between atoms: _325  and  _326
REMARK  132  A    between atoms: _325  and  _328
REMARK  133  A    between atoms: _328  and  _329
REMARK  134  A    between atoms: _329  and  _330
REMARK  135  A    between atoms: _333  and  _335
REMARK  136  A    between atoms: _335  and  _336
REMARK  137  A    between atoms: _339  and  _341
REMARK  138  A    between atoms: _341  and  _342
REMARK  139  A    between atoms: _341  and  _344
REMARK  140  A    between atoms: _344  and  _345
REMARK  141  A    between atoms: _351  and  _353
REMARK  142  A    between atoms: _353  and  _354
REMARK  143  A    between atoms: _353  and  _356
REMARK  144  A    between atoms: _356  and  _357
REMARK  145  A    between atoms: _360  and  _362
REMARK  146  A    between atoms: _362  and  _363
REMARK  147  A    between atoms: _362  and  _365
REMARK  148  A    between atoms: _365  and  _366
REMARK  149  A    between atoms: _369  and  _371
REMARK  150  A    between atoms: _371  and  _372
REMARK  151  A    between atoms: _371  and  _374
REMARK  152  A    between atoms: _374  and  _375
REMARK  153  A    between atoms: _378  and  _380
REMARK  154  A    between atoms: _380  and  _381
REMARK  155  A    between atoms: _380  and  _383
REMARK  156  A    between atoms: _383  and  _384
REMARK  157  A    between atoms: _387  and  _389
REMARK  158  A    between atoms: _389  and  _390
REMARK  159  A    between atoms: _389  and  _392
REMARK  160  A    between atoms: _392  and  _393
REMARK  161  A    between atoms: _396  and  _398
REMARK  162  A    between atoms: _398  and  _399
REMARK  163  A    between atoms: _402  and  _404
REMARK  164  A    between atoms: _404  and  _405
REMARK  165  A    between atoms: _404  and  _407
REMARK  166  A    between atoms: _407  and  _408
REMARK  167  A    between atoms: _410  and  _412
REMARK  168  A    between atoms: _412  and  _413
REMARK  169  A    between atoms: _412  and  _415
REMARK  170  A    between atoms: _418  and  _420
REMARK  171  A    between atoms: _420  and  _421
REMARK  172  A    between atoms: _420  and  _423
REMARK  173  A    between atoms: _423  and  _424
REMARK  174  A    between atoms: _426  and  _428
REMARK  175  A    between atoms: _428  and  _429
REMARK  176  A    between atoms: _428  and  _431
REMARK  177  A    between atoms: _431  and  _432
REMARK  178  A    between atoms: _438  and  _440
REMARK  179  A    between atoms: _440  and  _441
REMARK  180  A    between atoms: _440  and  _443
REMARK  181  A    between atoms: _443  and  _444
REMARK  182  A    between atoms: _447  and  _449
REMARK  183  A    between atoms: _449  and  _450
REMARK  184  A    between atoms: _449  and  _452
REMARK  185  A    between atoms: _452  and  _453
REMARK  186  A    between atoms: _453  and  _454
REMARK  187  A    between atoms: _456  and  _458
REMARK  188  A    between atoms: _458  and  _459
REMARK  189  A    between atoms: _461  and  _463
REMARK  190  A    between atoms: _463  and  _464
REMARK  191  A    between atoms: _463  and  _466
REMARK  192  A    between atoms: _466  and  _467
REMARK  193  A    between atoms: _470  and  _472
REMARK  194  A    between atoms: _472  and  _473
REMARK  195  A    between atoms: _472  and  _475
REMARK  196  A    between atoms: _475  and  _476
REMARK  197  A    between atoms: _482  and  _484
REMARK  198  A    between atoms: _484  and  _485
REMARK  199  A    between atoms: _487  and  _489
REMARK  200  A    between atoms: _489  and  _490
REMARK  201  A    between atoms: _489  and  _492
REMARK  202  A    between atoms: _492  and  _493
REMARK  203  A    between atoms: _493  and  _494
REMARK  204  A    between atoms: _494  and  _495
REMARK  205  A    between atoms: _495  and  _496
REMARK  206  A    between atoms: _500  and  _502
REMARK  207  A    between atoms: _502  and  _503
REMARK  208  A    between atoms: _505  and  _507
REMARK  209  A    between atoms: _507  and  _508
REMARK  210  A    between atoms: _507  and  _510
REMARK  211  A    between atoms: _513  and  _515
REMARK  212  A    between atoms: _515  and  _516
REMARK  213  A    between atoms: _518  and  _520
REMARK  214  A    between atoms: _520  and  _521
REMARK  215  A    between atoms: _520  and  _523
REMARK  216  A    between atoms: _523  and  _524
REMARK                            x       y       z     vdW  Elec       q    Type
REMARK                         _______ _______ _______ _____ _____    ______ ____
ROOT
ATOM      1  CB  GLN A   1      19.150 -14.642 -16.788  0.00  0.00    +0.035 C 
ENDROOT
BRANCH   1   2
ATOM      2  CA  GLN A   1      20.088 -13.655 -17.511  0.00  0.00    +0.134 C 
BRANCH   2   3
ATOM      3  N   GLN A   1      21.473 -13.990 -17.225  0.00  0.00    -0.239 NA
ATOM      4  H   GLN A   1      21.930 -13.554 -16.399  0.00  0.00    +0.142 HD
ENDBRANCH   2   3
BRANCH   2   5
ATOM      5  C   GLN A   1      19.817 -12.222 -17.070  0.00  0.00    +0.224 C 
ATOM      6  O   GLN A   1      20.039 -11.892 -15.902  0.00  0.00    -0.287 OA
ENDBRANCH   2   5
ENDBRANCH   1   2
BRANCH   1   7
ATOM      7  CG  GLN A   1      17.660 -14.265 -16.830  0.00  0.00    +0.087 C 
BRANCH   7   8
ATOM      8  CD  GLN A   1      17.084 -14.123 -18.219  0.00  0.00    +0.219 C 
ATOM      9  OE1 GLN A   1      16.444 -13.104 -18.538  0.00  0.00    -0.275 OA
ATOM     10  NE2 GLN A   1      17.261 -15.145 -19.054  0.00  0.00    -0.329 N 
ATOM     11 HE21 GLN A   1      17.803 -15.979 -18.748  0.00  0.00    +0.145 HD
ATOM     12 HE22 GLN A   1      16.858 -15.110 -20.012  0.00  0.00    +0.145 HD
ENDBRANCH   7   8
ENDBRANCH   1   7
TORSDOF 5
REMARK  Name = ../refined-set-2016/4pp0/4pp0_pocket.pdb
REMARK  216 active torsions:
REMARK  status: ('A' for Active; 'I' for Inactive)
REMARK    1  A    between atoms: _1  and  _3
REMARK    2  A    between atoms: _3  and  _4
REMARK    3  A    between atoms: _3  and  _6
REMARK    4  A    between atoms: _6  and  _7
REMARK    5  A    between atoms: _10  and  _12
REMARK    6  A    between atoms: _12  and  _13
REMARK    7  A    between atoms: _12  and  _15
REMARK    8  A    between atoms: _15  and  _16
REMARK    9  A    between atoms: _16  and  _17
REMARK   10  A    between atoms: _20  and  _22
REMARK   11  A    between atoms: _22  and  _23
REMARK   12  A    between atoms: _25  and  _27
REMARK   13  A    between atoms: _27  and  _28
REMARK   14  A    between atoms: _27  and  _30
REMARK   15  A    between atoms: _30  and  _31
REMARK   16  A    between atoms: _33  and  _35
REMARK   17  A    between atoms: _35  and  _36
REMARK   18  A    between atoms: _35  and  _38
REMARK   19  A    between atoms: _38  and  _39
REMARK   20  A    between atoms: _44  and  _45
REMARK   21  A    between atoms: _47  and  _49
REMARK   22  A    between atoms: _49  and  _50
REMARK   23  A    between atoms: _53  and  _55
REMARK   24  A    between atoms: _55  and  _56
REMARK   25  A    between atoms: _55  and  _58
REMARK   26  A    between atoms: _58  and  _59
REMARK   27  A    between atoms: _64  and  _65
REMARK   28  A    between atoms: _67  and  _69
REMARK   29  A    between atoms: _69  and  _70
REMARK   30  A    between atoms: _69  and  _72
REMARK   31  A    between atoms: _72  and  _73
REMARK   32  A    between atoms: _78  and  _80
REMARK   33  A    between atoms: _80  and  _81
REMARK   34  A    between atoms: _80  and  _83
REMARK   35  A    between atoms: _83  and  _84
REMARK   36  A    between atoms: _87  and  _89
REMARK   37  A    between atoms: _89  and  _90
REMARK   38  A    between atoms: _89  and  _92
REMARK   39  A    between atoms: _92  and  _93
REMARK   40  A    between atoms: _93  and  _94
REMARK   41  A    between atoms: _99  and  _101
REMARK   42  A    between atoms: _101  and  _102
REMARK   43  A    between atoms: _101  and  _104
REMARK   44  A    between atoms: _104  and  _105
REMARK   45  A    between atoms: _115  and  _117
REMARK   46  A    between atoms: _117  and  _118
REMARK   47  A    between atoms: _117  and  _120
REMARK   48  A    between atoms: _120  and  _121
REMARK   49  A    between atoms: _124  and  _126
REMARK   50  A    between atoms: _126  and  _127
REMARK   51  A    between atoms: _126  and  _129
REMARK   52  A    between atoms: _129  and  _130
REMARK   53  A    between atoms: _133  and  _135
REMARK   54  A    between atoms: _135  and  _136
REMARK   55  A    between atoms: _135  and  _138
REMARK   56  A    between atoms: _138  and  _139
REMARK   57  A    between atoms: _139  and  _140
REMARK   58  A    between atoms: _142  and  _144
REMARK   59  A    between atoms: _144  and  _145
REMARK   60  A    between atoms: _148  and  _150
REMARK   61  A    between atoms: _150  and  _151
REMARK   62  A    between atoms: _154  and  _156
REMARK   63  A    between atoms: _156  and  _157
REMARK   64  A    between atoms: _156  and  _159
REMARK   65  A    between atoms: _159  and  _160
REMARK   66  A    between atoms: _160  and  _161
REMARK   67  A    between atoms: _163  and  _165
REMARK   68  A    between atoms: _165  and  _166
REMARK   69  A    between atoms: _168  and  _170
REMARK   70  A    between atoms: _170  and  _171
REMARK   71  A    between atoms: _170  and  _173
REMARK   72  A    between atoms: _173  and  _174
REMARK   73  A    between atoms: _177  and  _179
REMARK   74  A    between atoms: _179  and  _180
REMARK   75  A    between atoms: _179  and  _182
REMARK   76  A    between atoms: _182  and  _183
REMARK   77  A    between atoms: _183  and  _184
REMARK   78  A    between atoms: _189  and  _191
REMARK   79  A    between atoms: _191  and  _192
REMARK   80  A    between atoms: _191  and  _194
REMARK   81  A    between atoms: _194  and  _195
REMARK   82  A    between atoms: _195  and  _196
REMARK   83  A    between atoms: _196  and  _197
REMARK   84  A    between atoms: _206  and  _208
REMARK   85  A    between atoms: _208  and  _209
REMARK   86  A    between atoms: _208  and  _211
REMARK   87  A    between atoms: _211  and  _212
REMARK   88  A    between atoms: _218  and  _220
REMARK   89  A    between atoms: _220  and  _221
REMARK   90  A    between atoms: _220  and  _223
REMARK   91  A    between atoms: _223  and  _224
REMARK   92  A    between atoms: _227  and  _229
REMARK   93  A    between atoms: _229  and  _230
REMARK   94  A    between atoms: _229  and  _232
REMARK   95  A    between atoms: _232  and  _233
REMARK   96  A    between atoms: _236  and  _238
REMARK   97  A    between atoms: _238  and  _239
REMARK   98  A    between atoms: _238  and  _241
REMARK   99  A    between atoms: _241  and  _242
REMARK  100  A    between atoms: _246  and  _247
REMARK  101  A    between atoms: _252  and  _254
REMARK  102  A    between atoms: _254  and  _255
REMARK  103  A    between atoms: _254  and  _257
REMARK  104  A    between atoms: _257  and  _258
REMARK  105  A    between atoms: _263  and  _265
REMARK  106  A    between atoms: _265  and  _266
REMARK  107  A    between atoms: _265  and  _268
REMARK  108  A    between atoms: _268  and  _269
REMARK  109  A    between atoms: _272  and  _274
REMARK  110  A    between atoms: _274  and  _275
REMARK  111  A    between atoms: _274  and  _277
REMARK  112  A    between atoms: _277  and  _278
REMARK  113  A    between atoms: _278  and  _279
REMARK  114  A    between atoms: _284  and  _286
REMARK  115  A    between atoms: _286  and  _287
REMARK  116  A    between atoms: _290  and  _292
REMARK  117  A    between atoms: _292  and  _293
REMARK  118  A    between atoms: _295  and  _297
REMARK  119  A    between atoms: _297  and  _298
REMARK  120  A    between atoms: _297  and  _300
REMARK  121  A    between atoms: _300  and  _301
REMARK  122  A    between atoms: _304  and  _306
REMARK  123  A    between atoms: _306  and  _307
REMARK  124  A    between atoms: _306  and  _309
REMARK  125  A    between atoms: _309  and  _310
REMARK  126  A    between atoms: _312  and  _314
REMARK  127  A    between atoms: _314  and  _315
REMARK  128  A    between atoms: _314  and  _317
REMARK  129  A    between atoms: _317  and  _318
REMARK  130  A    between atoms: _323  and  _325
REMARK  131  A    between atoms: _325  and  _326
REMARK  132  A    between atoms: _325  and  _328
REMARK  133  A    between atoms: _328  and  _329
REMARK  134  A    between atoms: _329  and  _330
REMARK  135  A    between atoms: _333  and  _335
REMARK  136  A    between atoms: _335  and  _336
REMARK  137  A    between atoms: _339  and  _341
REMARK  138  A    between atoms: _341  and  _342
REMARK  139  A    between atoms: _341  and  _344
REMARK  140  A    between atoms: _344  and  _345
REMARK  141  A    between atoms: _351  and  _353
REMARK  142  A    between atoms: _353  and  _354
REMARK  143  A    between atoms: _353  and  _356
REMARK  144  A    between atoms: _356  and  _357
REMARK  145  A    between atoms: _360  and  _362
REMARK  146  A    between atoms: _362  and  _363
REMARK  147  A    between atoms: _362  and  _365
REMARK  148  A    between atoms: _365  and  _366
REMARK  149  A    between atoms: _369  and  _371
REMARK  150  A    between atoms: _371  and  _372
REMARK  151  A    between atoms: _371  and  _374
REMARK  152  A    between atoms: _374  and  _375
REMARK  153  A    between atoms: _378  and  _380
REMARK  154  A    between atoms: _380  and  _381
REMARK  155  A    between atoms: _380  and  _383
REMARK  156  A    between atoms: _383  and  _384
REMARK  157  A    between atoms: _387  and  _389
REMARK  158  A    between atoms: _389  and  _390
REMARK  159  A    between atoms: _389  and  _392
REMARK  160  A    between atoms: _392  and  _393
REMARK  161  A    between atoms: _396  and  _398
REMARK  162  A    between atoms: _398  and  _399
REMARK  163  A    between atoms: _402  and  _404
REMARK  164  A    between atoms: _404  and  _405
REMARK  165  A    between atoms: _404  and  _407
REMARK  166  A    between atoms: _407  and  _408
REMARK  167  A    between atoms: _410  and  _412
REMARK  168  A    between atoms: _412  and  _413
REMARK  169  A    between atoms: _412  and  _415
REMARK  170  A    between atoms: _418  and  _420
REMARK  171  A    between atoms: _420  and  _421
REMARK  172  A    between atoms: _420  and  _423
REMARK  173  A    between atoms: _423  and  _424
REMARK  174  A    between atoms: _426  and  _428
REMARK  175  A    between atoms: _428  and  _429
REMARK  176  A    between atoms: _428  and  _431
REMARK  177  A    between atoms: _431  and  _432
REMARK  178  A    between atoms: _438  and  _440
REMARK  179  A    between atoms: _440  and  _441
REMARK  180  A    between atoms: _440  and  _443
REMARK  181  A    between atoms: _443  and  _444
REMARK  182  A    between atoms: _447  and  _449
REMARK  183  A    between atoms: _449  and  _450
REMARK  184  A    between atoms: _449  and  _452
REMARK  185  A    between atoms: _452  and  _453
REMARK  186  A    between atoms: _453  and  _454
REMARK  187  A    between atoms: _456  and  _458
REMARK  188  A    between atoms: _458  and  _459
REMARK  189  A    between atoms: _461  and  _463
REMARK  190  A    between atoms: _463  and  _464
REMARK  191  A    between atoms: _463  and  _466
REMARK  192  A    between atoms: _466  and  _467
REMARK  193  A    between atoms: _470  and  _472
REMARK  194  A    between atoms: _472  and  _473
REMARK  195  A    between atoms: _472  and  _475
REMARK  196  A    between atoms: _475  and  _476
REMARK  197  A    between atoms: _482  and  _484
REMARK  198  A    between atoms: _484  and  _485
REMARK  199  A    between atoms: _487  and  _489
REMARK  200  A    between atoms: _489  and  _490
REMARK  201  A    between atoms: _489  and  _492
REMARK  202  A    between atoms: _492  and  _493
REMARK  203  A    between atoms: _493  and  _494
REMARK  204  A    between atoms: _494  and  _495
REMARK  205  A    between atoms: _495  and  _496
REMARK  206  A    between atoms: _500  and  _502
REMARK  207  A    between atoms: _502  and  _503
REMARK  208  A    between atoms: _505  and  _507
REMARK  209  A    between atoms: _507  and  _508
REMARK  210  A    between atoms: _507  and  _510
REMARK  211  A    between atoms: _513  and  _515
REMARK  212  A    between atoms: _515  and  _516
REMARK  213  A    between atoms: _518  and  _520
REMARK  214  A    between atoms: _520  and  _521
REMARK  215  A    between atoms: _520  and  _523
REMARK  216  A    between atoms: _523  and  _524
REMARK                            x       y       z     vdW  Elec       q    Type
REMARK                         _______ _______ _______ _____ _____    ______ ____
ROOT
ATOM      1  CG  TRP A   1      16.719  -7.600 -12.402  0.00  0.00    -0.002 A 
ATOM      2  CD2 TRP A   1      17.085  -8.401 -11.257  0.00  0.00    +0.013 A 
ATOM      3  CE2 TRP A   1      16.220  -8.039 -10.197  0.00  0.00    +0.056 A 
ATOM      4  CZ2 TRP A   1      16.299  -8.635  -8.917  0.00  0.00    +0.017 A 
ATOM      5  CH2 TRP A   1      17.268  -9.603  -8.722  0.00  0.00    +0.001 A 
ATOM      6  CZ3 TRP A   1      18.121 -10.005  -9.761  0.00  0.00    +0.000 A 
ATOM      7  NE1 TRP A   1      15.384  -7.060 -10.671  0.00  0.00    -0.352 N 
ATOM      8  HE1 TRP A   1      14.636  -6.589 -10.122  0.00  0.00    +0.166 HD
ATOM      9  CE3 TRP A   1      18.041  -9.416 -11.032  0.00  0.00    +0.001 A 
ATOM     10  CD1 TRP A   1      15.692  -6.797 -11.995  0.00  0.00    +0.068 A 
ENDROOT
BRANCH   1  11
ATOM     11  CB  TRP A   1      17.355  -7.629 -13.754  0.00  0.00    +0.053 C 
BRANCH  11  12
ATOM     12  CA  TRP A   1      17.042  -8.916 -14.537  0.00  0.00    +0.137 C 
BRANCH  12  13
ATOM     13  N   TRP A   1      17.926  -9.011 -15.695  0.00  0.00    -0.239 NA
ATOM     14  H   TRP A   1      18.640  -8.269 -15.843  0.00  0.00    +0.142 HD
ENDBRANCH  12  13
BRANCH  12  15
ATOM     15  C   TRP A   1      15.552  -8.997 -14.879  0.00  0.00    +0.224 C 
ATOM     16  O   TRP A   1      14.836  -9.712 -14.191  0.00  0.00    -0.287 OA
ENDBRANCH  12  15
ENDBRANCH  11  12
ENDBRANCH   1  11
TORSDOF 4
REMARK  Name = ../refined-set-2016/4pp0/4pp0_pocket.pdb
REMARK  216 active torsions:
REMARK  status: ('A' for Active; 'I' for Inactive)
REMARK    1  A    between atoms: _1  and  _3
REMARK    2  A    between atoms: _3  and  _4
REMARK    3  A    between atoms: _3  and  _6
REMARK    4  A    between atoms: _6  and  _7
REMARK    5  A    between atoms: _10  and  _12
REMARK    6  A    between atoms: _12  and  _13
REMARK    7  A    between atoms: _12  and  _15
REMARK    8  A    between atoms: _15  and  _16
REMARK    9  A    between atoms: _16  and  _17
REMARK   10  A    between atoms: _20  and  _22
REMARK   11  A    between atoms: _22  and  _23
REMARK   12  A    between atoms: _25  and  _27
REMARK   13  A    between atoms: _27  and  _28
REMARK   14  A    between atoms: _27  and  _30
REMARK   15  A    between atoms: _30  and  _31
REMARK   16  A    between atoms: _33  and  _35
REMARK   17  A    between atoms: _35  and  _36
REMARK   18  A    between atoms: _35  and  _38
REMARK   19  A    between atoms: _38  and  _39
REMARK   20  A    between atoms: _44  and  _45
REMARK   21  A    between atoms: _47  and  _49
REMARK   22  A    between atoms: _49  and  _50
REMARK   23  A    between atoms: _53  and  _55
REMARK   24  A    between atoms: _55  and  _56
REMARK   25  A    between atoms: _55  and  _58
REMARK   26  A    between atoms: _58  and  _59
REMARK   27  A    between atoms: _64  and  _65
REMARK   28  A    between atoms: _67  and  _69
REMARK   29  A    between atoms: _69  and  _70
REMARK   30  A    between atoms: _69  and  _72
REMARK   31  A    between atoms: _72  and  _73
REMARK   32  A    between atoms: _78  and  _80
REMARK   33  A    between atoms: _80  and  _81
REMARK   34  A    between atoms: _80  and  _83
REMARK   35  A    between atoms: _83  and  _84
REMARK   36  A    between atoms: _87  and  _89
REMARK   37  A    between atoms: _89  and  _90
REMARK   38  A    between atoms: _89  and  _92
REMARK   39  A    between atoms: _92  and  _93
REMARK   40  A    between atoms: _93  and  _94
REMARK   41  A    between atoms: _99  and  _101
REMARK   42  A    between atoms: _101  and  _102
REMARK   43  A    between atoms: _101  and  _104
REMARK   44  A    between atoms: _104  and  _105
REMARK   45  A    between atoms: _115  and  _117
REMARK   46  A    between atoms: _117  and  _118
REMARK   47  A    between atoms: _117  and  _120
REMARK   48  A    between atoms: _120  and  _121
REMARK   49  A    between atoms: _124  and  _126
REMARK   50  A    between atoms: _126  and  _127
REMARK   51  A    between atoms: _126  and  _129
REMARK   52  A    between atoms: _129  and  _130
REMARK   53  A    between atoms: _133  and  _135
REMARK   54  A    between atoms: _135  and  _136
REMARK   55  A    between atoms: _135  and  _138
REMARK   56  A    between atoms: _138  and  _139
REMARK   57  A    between atoms: _139  and  _140
REMARK   58  A    between atoms: _142  and  _144
REMARK   59  A    between atoms: _144  and  _145
REMARK   60  A    between atoms: _148  and  _150
REMARK   61  A    between atoms: _150  and  _151
REMARK   62  A    between atoms: _154  and  _156
REMARK   63  A    between atoms: _156  and  _157
REMARK   64  A    between atoms: _156  and  _159
REMARK   65  A    between atoms: _159  and  _160
REMARK   66  A    between atoms: _160  and  _161
REMARK   67  A    between atoms: _163  and  _165
REMARK   68  A    between atoms: _165  and  _166
REMARK   69  A    between atoms: _168  and  _170
REMARK   70  A    between atoms: _170  and  _171
REMARK   71  A    between atoms: _170  and  _173
REMARK   72  A    between atoms: _173  and  _174
REMARK   73  A    between atoms: _177  and  _179
REMARK   74  A    between atoms: _179  and  _180
REMARK   75  A    between atoms: _179  and  _182
REMARK   76  A    between atoms: _182  and  _183
REMARK   77  A    between atoms: _183  and  _184
REMARK   78  A    between atoms: _189  and  _191
REMARK   79  A    between atoms: _191  and  _192
REMARK   80  A    between atoms: _191  and  _194
REMARK   81  A    between atoms: _194  and  _195
REMARK   82  A    between atoms: _195  and  _196
REMARK   83  A    between atoms: _196  and  _197
REMARK   84  A    between atoms: _206  and  _208
REMARK   85  A    between atoms: _208  and  _209
REMARK   86  A    between atoms: _208  and  _211
REMARK   87  A    between atoms: _211  and  _212
REMARK   88  A    between atoms: _218  and  _220
REMARK   89  A    between atoms: _220  and  _221
REMARK   90  A    between atoms: _220  and  _223
REMARK   91  A    between atoms: _223  and  _224
REMARK   92  A    between atoms: _227  and  _229
REMARK   93  A    between atoms: _229  and  _230
REMARK   94  A    between atoms: _229  and  _232
REMARK   95  A    between atoms: _232  and  _233
REMARK   96  A    between atoms: _236  and  _238
REMARK   97  A    between atoms: _238  and  _239
REMARK   98  A    between atoms: _238  and  _241
REMARK   99  A    between atoms: _241  and  _242
REMARK  100  A    between atoms: _246  and  _247
REMARK  101  A    between atoms: _252  and  _254
REMARK  102  A    between atoms: _254  and  _255
REMARK  103  A    between atoms: _254  and  _257
REMARK  104  A    between atoms: _257  and  _258
REMARK  105  A    between atoms: _263  and  _265
REMARK  106  A    between atoms: _265  and  _266
REMARK  107  A    between atoms: _265  and  _268
REMARK  108  A    between atoms: _268  and  _269
REMARK  109  A    between atoms: _272  and  _274
REMARK  110  A    between atoms: _274  and  _275
REMARK  111  A    between atoms: _274  and  _277
REMARK  112  A    between atoms: _277  and  _278
REMARK  113  A    between atoms: _278  and  _279
REMARK  114  A    between atoms: _284  and  _286
REMARK  115  A    between atoms: _286  and  _287
REMARK  116  A    between atoms: _290  and  _292
REMARK  117  A    between atoms: _292  and  _293
REMARK  118  A    between atoms: _295  and  _297
REMARK  119  A    between atoms: _297  and  _298
REMARK  120  A    between atoms: _297  and  _300
REMARK  121  A    between atoms: _300  and  _301
REMARK  122  A    between atoms: _304  and  _306
REMARK  123  A    between atoms: _306  and  _307
REMARK  124  A    between atoms: _306  and  _309
REMARK  125  A    between atoms: _309  and  _310
REMARK  126  A    between atoms: _312  and  _314
REMARK  127  A    between atoms: _314  and  _315
REMARK  128  A    between atoms: _314  and  _317
REMARK  129  A    between atoms: _317  and  _318
REMARK  130  A    between atoms: _323  and  _325
REMARK  131  A    between atoms: _325  and  _326
REMARK  132  A    between atoms: _325  and  _328
REMARK  133  A    between atoms: _328  and  _329
REMARK  134  A    between atoms: _329  and  _330
REMARK  135  A    between atoms: _333  and  _335
REMARK  136  A    between atoms: _335  and  _336
REMARK  137  A    between atoms: _339  and  _341
REMARK  138  A    between atoms: _341  and  _342
REMARK  139  A    between atoms: _341  and  _344
REMARK  140  A    between atoms: _344  and  _345
REMARK  141  A    between atoms: _351  and  _353
REMARK  142  A    between atoms: _353  and  _354
REMARK  143  A    between atoms: _353  and  _356
REMARK  144  A    between atoms: _356  and  _357
REMARK  145  A    between atoms: _360  and  _362
REMARK  146  A    between atoms: _362  and  _363
REMARK  147  A    between atoms: _362  and  _365
REMARK  148  A    between atoms: _365  and  _366
REMARK  149  A    between atoms: _369  and  _371
REMARK  150  A    between atoms: _371  and  _372
REMARK  151  A    between atoms: _371  and  _374
REMARK  152  A    between atoms: _374  and  _375
REMARK  153  A    between atoms: _378  and  _380
REMARK  154  A    between atoms: _380  and  _381
REMARK  155  A    between atoms: _380  and  _383
REMARK  156  A    between atoms: _383  and  _384
REMARK  157  A    between atoms: _387  and  _389
REMARK  158  A    between atoms: _389  and  _390
REMARK  159  A    between atoms: _389  and  _392
REMARK  160  A    between atoms: _392  and  _393
REMARK  161  A    between atoms: _396  and  _398
REMARK  162  A    between atoms: _398  and  _399
REMARK  163  A    between atoms: _402  and  _404
REMARK  164  A    between atoms: _404  and  _405
REMARK  165  A    between atoms: _404  and  _407
REMARK  166  A    between atoms: _407  and  _408
REMARK  167  A    between atoms: _410  and  _412
REMARK  168  A    between atoms: _412  and  _413
REMARK  169  A    between atoms: _412  and  _415
REMARK  170  A    between atoms: _418  and  _420
REMARK  171  A    between atoms: _420  and  _421
REMARK  172  A    between atoms: _420  and  _423
REMARK  173  A    between atoms: _423  and  _424
REMARK  174  A    between atoms: _426  and  _428
REMARK  175  A    between atoms: _428  and  _429
REMARK  176  A    between atoms: _428  and  _431
REMARK  177  A    between atoms: _431  and  _432
REMARK  178  A    between atoms: _438  and  _440
REMARK  179  A    between atoms: _440  and  _441
REMARK  180  A    between atoms: _440  and  _443
REMARK  181  A    between atoms: _443  and  _444
REMARK  182  A    between atoms: _447  and  _449
REMARK  183  A    between atoms: _449  and  _450
REMARK  184  A    between atoms: _449  and  _452
REMARK  185  A    between atoms: _452  and  _453
REMARK  186  A    between atoms: _453  and  _454
REMARK  187  A    between atoms: _456  and  _458
REMARK  188  A    between atoms: _458  and  _459
REMARK  189  A    between atoms: _461  and  _463
REMARK  190  A    between atoms: _463  and  _464
REMARK  191  A    between atoms: _463  and  _466
REMARK  192  A    between atoms: _466  and  _467
REMARK  193  A    between atoms: _470  and  _472
REMARK  194  A    between atoms: _472  and  _473
REMARK  195  A    between atoms: _472  and  _475
REMARK  196  A    between atoms: _475  and  _476
REMARK  197  A    between atoms: _482  and  _484
REMARK  198  A    between atoms: _484  and  _485
REMARK  199  A    between atoms: _487  and  _489
REMARK  200  A    between atoms: _489  and  _490
REMARK  201  A    between atoms: _489  and  _492
REMARK  202  A    between atoms: _492  and  _493
REMARK  203  A    between atoms: _493  and  _494
REMARK  204  A    between atoms: _494  and  _495
REMARK  205  A    between atoms: _495  and  _496
REMARK  206  A    between atoms: _500  and  _502
REMARK  207  A    between atoms: _502  and  _503
REMARK  208  A    between atoms: _505  and  _507
REMARK  209  A    between atoms: _507  and  _508
REMARK  210  A    between atoms: _507  and  _510
REMARK  211  A    between atoms: _513  and  _515
REMARK  212  A    between atoms: _515  and  _516
REMARK  213  A    between atoms: _518  and  _520
REMARK  214  A    between atoms: _520  and  _521
REMARK  215  A    between atoms: _520  and  _523
REMARK  216  A    between atoms: _523  and  _524
REMARK                            x       y       z     vdW  Elec       q    Type
REMARK                         _______ _______ _______ _____ _____    ______ ____
ROOT
ATOM      1  CA  ILE A   1      14.948 -13.667 -14.465  0.00  0.00    +0.133 C 
ENDROOT
BRANCH   1   2
ATOM      2  N   ILE A   1      14.323 -12.615 -15.281  0.00  0.00    -0.239 NA
ATOM      3  H   ILE A   1      14.449 -11.612 -15.036  0.00  0.00    +0.142 HD
ENDBRANCH   1   2
BRANCH   1   4
ATOM      4  CB  ILE A   1      16.077 -13.096 -13.545  0.00  0.00    +0.023 C 
ATOM      5  CG2 ILE A   1      15.530 -12.304 -12.332  0.00  0.00    +0.002 C 
BRANCH   4   6
ATOM      6  CG1 ILE A   1      17.070 -14.197 -13.141  0.00  0.00    +0.002 C 
ATOM      7  CD1 ILE A   1      18.413 -13.628 -12.655  0.00  0.00    +0.000 C 
ENDBRANCH   4   6
ENDBRANCH   1   4
BRANCH   1   8
ATOM      8  C   ILE A   1      13.935 -14.575 -13.754  0.00  0.00    +0.224 C 
ATOM      9  O   ILE A   1      14.162 -15.789 -13.682  0.00  0.00    -0.287 OA
ENDBRANCH   1   8
TORSDOF 4
REMARK  Name = ../refined-set-2016/4pp0/4pp0_pocket.pdb
REMARK  216 active torsions:
REMARK  status: ('A' for Active; 'I' for Inactive)
REMARK    1  A    between atoms: _1  and  _3
REMARK    2  A    between atoms: _3  and  _4
REMARK    3  A    between atoms: _3  and  _6
REMARK    4  A    between atoms: _6  and  _7
REMARK    5  A    between atoms: _10  and  _12
REMARK    6  A    between atoms: _12  and  _13
REMARK    7  A    between atoms: _12  and  _15
REMARK    8  A    between atoms: _15  and  _16
REMARK    9  A    between atoms: _16  and  _17
REMARK   10  A    between atoms: _20  and  _22
REMARK   11  A    between atoms: _22  and  _23
REMARK   12  A    between atoms: _25  and  _27
REMARK   13  A    between atoms: _27  and  _28
REMARK   14  A    between atoms: _27  and  _30
REMARK   15  A    between atoms: _30  and  _31
REMARK   16  A    between atoms: _33  and  _35
REMARK   17  A    between atoms: _35  and  _36
REMARK   18  A    between atoms: _35  and  _38
REMARK   19  A    between atoms: _38  and  _39
REMARK   20  A    between atoms: _44  and  _45
REMARK   21  A    between atoms: _47  and  _49
REMARK   22  A    between atoms: _49  and  _50
REMARK   23  A    between atoms: _53  and  _55
REMARK   24  A    between atoms: _55  and  _56
REMARK   25  A    between atoms: _55  and  _58
REMARK   26  A    between atoms: _58  and  _59
REMARK   27  A    between atoms: _64  and  _65
REMARK   28  A    between atoms: _67  and  _69
REMARK   29  A    between atoms: _69  and  _70
REMARK   30  A    between atoms: _69  and  _72
REMARK   31  A    between atoms: _72  and  _73
REMARK   32  A    between atoms: _78  and  _80
REMARK   33  A    between atoms: _80  and  _81
REMARK   34  A    between atoms: _80  and  _83
REMARK   35  A    between atoms: _83  and  _84
REMARK   36  A    between atoms: _87  and  _89
REMARK   37  A    between atoms: _89  and  _90
REMARK   38  A    between atoms: _89  and  _92
REMARK   39  A    between atoms: _92  and  _93
REMARK   40  A    between atoms: _93  and  _94
REMARK   41  A    between atoms: _99  and  _101
REMARK   42  A    between atoms: _101  and  _102
REMARK   43  A    between atoms: _101  and  _104
REMARK   44  A    between atoms: _104  and  _105
REMARK   45  A    between atoms: _115  and  _117
REMARK   46  A    between atoms: _117  and  _118
REMARK   47  A    between atoms: _117  and  _120
REMARK   48  A    between atoms: _120  and  _121
REMARK   49  A    between atoms: _124  and  _126
REMARK   50  A    between atoms: _126  and  _127
REMARK   51  A    between atoms: _126  and  _129
REMARK   52  A    between atoms: _129  and  _130
REMARK   53  A    between atoms: _133  and  _135
REMARK   54  A    between atoms: _135  and  _136
REMARK   55  A    between atoms: _135  and  _138
REMARK   56  A    between atoms: _138  and  _139
REMARK   57  A    between atoms: _139  and  _140
REMARK   58  A    between atoms: _142  and  _144
REMARK   59  A    between atoms: _144  and  _145
REMARK   60  A    between atoms: _148  and  _150
REMARK   61  A    between atoms: _150  and  _151
REMARK   62  A    between atoms: _154  and  _156
REMARK   63  A    between atoms: _156  and  _157
REMARK   64  A    between atoms: _156  and  _159
REMARK   65  A    between atoms: _159  and  _160
REMARK   66  A    between atoms: _160  and  _161
REMARK   67  A    between atoms: _163  and  _165
REMARK   68  A    between atoms: _165  and  _166
REMARK   69  A    between atoms: _168  and  _170
REMARK   70  A    between atoms: _170  and  _171
REMARK   71  A    between atoms: _170  and  _173
REMARK   72  A    between atoms: _173  and  _174
REMARK   73  A    between atoms: _177  and  _179
REMARK   74  A    between atoms: _179  and  _180
REMARK   75  A    between atoms: _179  and  _182
REMARK   76  A    between atoms: _182  and  _183
REMARK   77  A    between atoms: _183  and  _184
REMARK   78  A    between atoms: _189  and  _191
REMARK   79  A    between atoms: _191  and  _192
REMARK   80  A    between atoms: _191  and  _194
REMARK   81  A    between atoms: _194  and  _195
REMARK   82  A    between atoms: _195  and  _196
REMARK   83  A    between atoms: _196  and  _197
REMARK   84  A    between atoms: _206  and  _208
REMARK   85  A    between atoms: _208  and  _209
REMARK   86  A    between atoms: _208  and  _211
REMARK   87  A    between atoms: _211  and  _212
REMARK   88  A    between atoms: _218  and  _220
REMARK   89  A    between atoms: _220  and  _221
REMARK   90  A    between atoms: _220  and  _223
REMARK   91  A    between atoms: _223  and  _224
REMARK   92  A    between atoms: _227  and  _229
REMARK   93  A    between atoms: _229  and  _230
REMARK   94  A    between atoms: _229  and  _232
REMARK   95  A    between atoms: _232  and  _233
REMARK   96  A    between atoms: _236  and  _238
REMARK   97  A    between atoms: _238  and  _239
REMARK   98  A    between atoms: _238  and  _241
REMARK   99  A    between atoms: _241  and  _242
REMARK  100  A    between atoms: _246  and  _247
REMARK  101  A    between atoms: _252  and  _254
REMARK  102  A    between atoms: _254  and  _255
REMARK  103  A    between atoms: _254  and  _257
REMARK  104  A    between atoms: _257  and  _258
REMARK  105  A    between atoms: _263  and  _265
REMARK  106  A    between atoms: _265  and  _266
REMARK  107  A    between atoms: _265  and  _268
REMARK  108  A    between atoms: _268  and  _269
REMARK  109  A    between atoms: _272  and  _274
REMARK  110  A    between atoms: _274  and  _275
REMARK  111  A    between atoms: _274  and  _277
REMARK  112  A    between atoms: _277  and  _278
REMARK  113  A    between atoms: _278  and  _279
REMARK  114  A    between atoms: _284  and  _286
REMARK  115  A    between atoms: _286  and  _287
REMARK  116  A    between atoms: _290  and  _292
REMARK  117  A    between atoms: _292  and  _293
REMARK  118  A    between atoms: _295  and  _297
REMARK  119  A    between atoms: _297  and  _298
REMARK  120  A    between atoms: _297  and  _300
REMARK  121  A    between atoms: _300  and  _301
REMARK  122  A    between atoms: _304  and  _306
REMARK  123  A    between atoms: _306  and  _307
REMARK  124  A    between atoms: _306  and  _309
REMARK  125  A    between atoms: _309  and  _310
REMARK  126  A    between atoms: _312  and  _314
REMARK  127  A    between atoms: _314  and  _315
REMARK  128  A    between atoms: _314  and  _317
REMARK  129  A    between atoms: _317  and  _318
REMARK  130  A    between atoms: _323  and  _325
REMARK  131  A    between atoms: _325  and  _326
REMARK  132  A    between atoms: _325  and  _328
REMARK  133  A    between atoms: _328  and  _329
REMARK  134  A    between atoms: _329  and  _330
REMARK  135  A    between atoms: _333  and  _335
REMARK  136  A    between atoms: _335  and  _336
REMARK  137  A    between atoms: _339  and  _341
REMARK  138  A    between atoms: _341  and  _342
REMARK  139  A    between atoms: _341  and  _344
REMARK  140  A    between atoms: _344  and  _345
REMARK  141  A    between atoms: _351  and  _353
REMARK  142  A    between atoms: _353  and  _354
REMARK  143  A    between atoms: _353  and  _356
REMARK  144  A    between atoms: _356  and  _357
REMARK  145  A    between atoms: _360  and  _362
REMARK  146  A    between atoms: _362  and  _363
REMARK  147  A    between atoms: _362  and  _365
REMARK  148  A    between atoms: _365  and  _366
REMARK  149  A    between atoms: _369  and  _371
REMARK  150  A    between atoms: _371  and  _372
REMARK  151  A    between atoms: _371  and  _374
REMARK  152  A    between atoms: _374  and  _375
REMARK  153  A    between atoms: _378  and  _380
REMARK  154  A    between atoms: _380  and  _381
REMARK  155  A    between atoms: _380  and  _383
REMARK  156  A    between atoms: _383  and  _384
REMARK  157  A    between atoms: _387  and  _389
REMARK  158  A    between atoms: _389  and  _390
REMARK  159  A    between atoms: _389  and  _392
REMARK  160  A    between atoms: _392  and  _393
REMARK  161  A    between atoms: _396  and  _398
REMARK  162  A    between atoms: _398  and  _399
REMARK  163  A    between atoms: _402  and  _404
REMARK  164  A    between atoms: _404  and  _405
REMARK  165  A    between atoms: _404  and  _407
REMARK  166  A    between atoms: _407  and  _408
REMARK  167  A    between atoms: _410  and  _412
REMARK  168  A    between atoms: _412  and  _413
REMARK  169  A    between atoms: _412  and  _415
REMARK  170  A    between atoms: _418  and  _420
REMARK  171  A    between atoms: _420  and  _421
REMARK  172  A    between atoms: _420  and  _423
REMARK  173  A    between atoms: _423  and  _424
REMARK  174  A    between atoms: _426  and  _428
REMARK  175  A    between atoms: _428  and  _429
REMARK  176  A    between atoms: _428  and  _431
REMARK  177  A    between atoms: _431  and  _432
REMARK  178  A    between atoms: _438  and  _440
REMARK  179  A    between atoms: _440  and  _441
REMARK  180  A    between atoms: _440  and  _443
REMARK  181  A    between atoms: _443  and  _444
REMARK  182  A    between atoms: _447  and  _449
REMARK  183  A    between atoms: _449  and  _450
REMARK  184  A    between atoms: _449  and  _452
REMARK  185  A    between atoms: _452  and  _453
REMARK  186  A    between atoms: _453  and  _454
REMARK  187  A    between atoms: _456  and  _458
REMARK  188  A    between atoms: _458  and  _459
REMARK  189  A    between atoms: _461  and  _463
REMARK  190  A    between atoms: _463  and  _464
REMARK  191  A    between atoms: _463  and  _466
REMARK  192  A    between atoms: _466  and  _467
REMARK  193  A    between atoms: _470  and  _472
REMARK  194  A    between atoms: _472  and  _473
REMARK  195  A    between atoms: _472  and  _475
REMARK  196  A    between atoms: _475  and  _476
REMARK  197  A    between atoms: _482  and  _484
REMARK  198  A    between atoms: _484  and  _485
REMARK  199  A    between atoms: _487  and  _489
REMARK  200  A    between atoms: _489  and  _490
REMARK  201  A    between atoms: _489  and  _492
REMARK  202  A    between atoms: _492  and  _493
REMARK  203  A    between atoms: _493  and  _494
REMARK  204  A    between atoms: _494  and  _495
REMARK  205  A    between atoms: _495  and  _496
REMARK  206  A    between atoms: _500  and  _502
REMARK  207  A    between atoms: _502  and  _503
REMARK  208  A    between atoms: _505  and  _507
REMARK  209  A    between atoms: _507  and  _508
REMARK  210  A    between atoms: _507  and  _510
REMARK  211  A    between atoms: _513  and  _515
REMARK  212  A    between atoms: _515  and  _516
REMARK  213  A    between atoms: _518  and  _520
REMARK  214  A    between atoms: _520  and  _521
REMARK  215  A    between atoms: _520  and  _523
REMARK  216  A    between atoms: _523  and  _524
REMARK                            x       y       z     vdW  Elec       q    Type
REMARK                         _______ _______ _______ _____ _____    ______ ____
ROOT
ATOM      1  CA  MET A   5      17.839 -11.617  -4.906  0.00  0.00    +0.149 C 
ENDROOT
BRANCH   1   4
ATOM      2  C   ALA A   4      20.087 -10.723  -4.951  0.00  0.00    +0.241 C 
ATOM      3  O   ALA A   4      19.654  -9.561  -4.878  0.00  0.00    -0.273 OA
ATOM      4  N   MET A   5      19.276 -11.803  -4.950  0.00  0.00    -0.297 N 
ATOM      5  H   MET A   5      19.679 -12.761  -4.981  0.00  0.00    +0.150 HD
BRANCH   2   6
ATOM      6  CA  ALA A   4      21.578 -10.992  -5.090  0.00  0.00    +0.149 C 
ATOM      7  CB  ALA A   4      22.322  -9.706  -5.471  0.00  0.00    +0.031 C 
BRANCH   6   9
ATOM      8  C   ALA A   3      21.228 -11.986  -7.336  0.00  0.00    +0.241 C 
ATOM      9  N   ALA A   4      21.804 -12.037  -6.106  0.00  0.00    -0.297 N 
ATOM     10  H   ALA A   4      22.424 -12.839  -5.874  0.00  0.00    +0.150 HD
ATOM     11  O   ALA A   3      20.519 -11.020  -7.709  0.00  0.00    -0.273 OA
BRANCH   8  12
ATOM     12  CA  ALA A   3      21.503 -13.173  -8.280  0.00  0.00    +0.149 C 
ATOM     13  CB  ALA A   3      20.605 -13.069  -9.513  0.00  0.00    +0.031 C 
BRANCH  12  15
ATOM     14  C   MET A   2      21.904 -15.558  -7.962  0.00  0.00    +0.241 C 
ATOM     15  N   ALA A   3      21.245 -14.450  -7.621  0.00  0.00    -0.297 N 
ATOM     16  H   ALA A   3      20.530 -14.497  -6.867  0.00  0.00    +0.150 HD
ATOM     17  O   MET A   2      22.797 -15.576  -8.815  0.00  0.00    -0.273 OA
BRANCH  14  18
ATOM     18  CA  MET A   2      21.403 -16.849  -7.361  0.00  0.00    +0.149 C 
BRANCH  18  21
ATOM     19  C   ILE A   1      19.256 -17.799  -8.128  0.00  0.00    +0.238 C 
ATOM     20  O   ILE A   1      18.822 -17.909  -6.980  0.00  0.00    -0.274 OA
ATOM     21  N   MET A   2      20.504 -17.372  -8.403  0.00  0.00    -0.297 N 
ATOM     22  H   MET A   2      20.844 -17.413  -9.385  0.00  0.00    +0.150 HD
BRANCH  19  23
ATOM     23  CA  ILE A   1      18.339 -18.118  -9.305  0.00  0.00    +0.145 C 
BRANCH  23  24
ATOM     24  N   ILE A   1      17.772 -19.451  -9.106  0.00  0.00    -0.238 NA
ATOM     25  H   ILE A   1      17.218 -19.647  -8.248  0.00  0.00    +0.142 HD
ENDBRANCH  23  24
BRANCH  23  26
ATOM     26  CB  ILE A   1      17.220 -17.030  -9.364  0.00  0.00    +0.025 C 
ATOM     27  CG2 ILE A   1      17.820 -15.606  -9.356  0.00  0.00    +0.002 C 
BRANCH  26  28
ATOM     28  CG1 ILE A   1      16.278 -17.249 -10.562  0.00  0.00    +0.002 C 
ATOM     29  CD1 ILE A   1      14.934 -16.462 -10.450  0.00  0.00    +0.000 C 
ENDBRANCH  26  28
ENDBRANCH  23  26
ENDBRANCH  19  23
ENDBRANCH  18  21
BRANCH  18  30
ATOM     30  CB  MET A   2      22.520 -17.835  -7.007  0.00  0.00    +0.041 C 
BRANCH  30  31
ATOM     31  CG  MET A   2      21.974 -19.004  -6.230  0.00  0.00    +0.060 C 
BRANCH  31  32
ATOM     32  SD  MET A   2      23.271 -20.132  -5.690  0.00  0.00    -0.139 S 
ATOM     33  CE  MET A   2      24.028 -19.186  -4.374  0.00  0.00    +0.069 C 
ENDBRANCH  31  32
ENDBRANCH  30  31
ENDBRANCH  18  30
ENDBRANCH  14  18
ENDBRANCH  12  15
ENDBRANCH   8  12
ENDBRANCH   6   9
ENDBRANCH   2   6
ENDBRANCH   1   4
BRANCH   1  34
ATOM     34  C   MET A   5      17.291 -11.607  -3.488  0.00  0.00    +0.241 C 
ATOM     35  O   MET A   5      17.305 -12.641  -2.809  0.00  0.00    -0.273 OA
ATOM     36  N   GLY A   6      16.738 -10.458  -3.080  0.00  0.00    -0.295 N 
ATOM     37  H   GLY A   6      16.758  -9.624  -3.701  0.00  0.00    +0.150 HD
BRANCH  36  38
ATOM     38  CA  GLY A   6      16.110 -10.373  -1.772  0.00  0.00    +0.176 C 
BRANCH  38  39
ATOM     39  C   GLY A   6      14.901 -11.300  -1.690  0.00  0.00    +0.243 C 
ATOM     40  N   ILE A   7      14.674 -11.887  -0.496  0.00  0.00    -0.297 N 
ATOM     41  H   ILE A   7      15.331 -11.703   0.289  0.00  0.00    +0.150 HD
ATOM     42  O   GLY A   6      14.174 -11.497  -2.679  0.00  0.00    -0.273 OA
BRANCH  40  43
ATOM     43  CA  ILE A   7      13.523 -12.781  -0.270  0.00  0.00    +0.149 C 
BRANCH  43  44
ATOM     44  C   ILE A   7      12.356 -11.851   0.011  0.00  0.00    +0.241 C 
ATOM     45  O   ILE A   7      12.014 -11.539   1.170  0.00  0.00    -0.273 OA
ATOM     46  N   GLN A   8      11.818 -11.320  -1.087  0.00  0.00    -0.298 N 
ATOM     47  H   GLN A   8      12.116 -11.708  -2.005  0.00  0.00    +0.150 HD
BRANCH  46  48
ATOM     48  CA  GLN A   8      10.852 -10.247  -1.097  0.00  0.00    +0.137 C 
BRANCH  48  49
ATOM     49  C   GLN A   8       9.420 -10.814  -1.058  0.00  0.00    +0.227 C 
ATOM     50  O   GLN A   8       9.089 -11.676  -1.876  0.00  0.00    -0.286 OA
ENDBRANCH  48  49
BRANCH  48  51
ATOM     51  CB  GLN A   8      11.114  -9.454  -2.390  0.00  0.00    +0.037 C 
BRANCH  51  52
ATOM     52  CG  GLN A   8      10.395  -8.130  -2.511  0.00  0.00    +0.087 C 
BRANCH  52  53
ATOM     53  CD  GLN A   8      10.229  -7.771  -3.962  0.00  0.00    +0.219 C 
ATOM     54  OE1 GLN A   8      10.910  -6.875  -4.495  0.00  0.00    -0.275 OA
ATOM     55  NE2 GLN A   8       9.278  -8.417  -4.603  0.00  0.00    -0.329 N 
ATOM     56 HE21 GLN A   8       8.734  -9.159  -4.117  0.00  0.00    +0.145 HD
ATOM     57 HE22 GLN A   8       9.070  -8.186  -5.595  0.00  0.00    +0.145 HD
ENDBRANCH  52  53
ENDBRANCH  51  52
ENDBRANCH  48  51
ENDBRANCH  46  48
ENDBRANCH  43  44
BRANCH  43  58
ATOM     58  CB  ILE A   7      13.807 -13.779   0.870  0.00  0.00    +0.027 C 
ATOM     59  CG2 ILE A   7      12.592 -14.698   1.052  0.00  0.00    +0.002 C 
BRANCH  58  60
ATOM     60  CG1 ILE A   7      15.101 -14.588   0.561  0.00  0.00    +0.002 C 
ATOM     61  CD1 ILE A   7      15.640 -15.410   1.775  0.00  0.00    +0.000 C 
ENDBRANCH  58  60
ENDBRANCH  43  58
ENDBRANCH  40  43
ENDBRANCH  38  39
ENDBRANCH  36  38
ENDBRANCH   1  34
BRANCH   1  62
ATOM     62  CB  MET A   5      17.121 -12.691  -5.751  0.00  0.00    +0.041 C 
BRANCH  62  63
ATOM     63  CG  MET A   5      15.628 -12.403  -5.891  0.00  0.00    +0.060 C 
BRANCH  63  64
ATOM     64  SD  MET A   5      14.823 -13.545  -7.069  0.00  0.00    -0.139 S 
ATOM     65  CE  MET A   5      15.249 -12.685  -8.614  0.00  0.00    +0.069 C 
ENDBRANCH  63  64
ENDBRANCH  62  63
ENDBRANCH   1  62
TORSDOF 29
REMARK  Name = ../refined-set-2016/4pp0/4pp0_pocket.pdb
REMARK  216 active torsions:
REMARK  status: ('A' for Active; 'I' for Inactive)
REMARK    1  A    between atoms: _1  and  _3
REMARK    2  A    between atoms: _3  and  _4
REMARK    3  A    between atoms: _3  and  _6
REMARK    4  A    between atoms: _6  and  _7
REMARK    5  A    between atoms: _10  and  _12
REMARK    6  A    between atoms: _12  and  _13
REMARK    7  A    between atoms: _12  and  _15
REMARK    8  A    between atoms: _15  and  _16
REMARK    9  A    between atoms: _16  and  _17
REMARK   10  A    between atoms: _20  and  _22
REMARK   11  A    between atoms: _22  and  _23
REMARK   12  A    between atoms: _25  and  _27
REMARK   13  A    between atoms: _27  and  _28
REMARK   14  A    between atoms: _27  and  _30
REMARK   15  A    between atoms: _30  and  _31
REMARK   16  A    between atoms: _33  and  _35
REMARK   17  A    between atoms: _35  and  _36
REMARK   18  A    between atoms: _35  and  _38
REMARK   19  A    between atoms: _38  and  _39
REMARK   20  A    between atoms: _44  and  _45
REMARK   21  A    between atoms: _47  and  _49
REMARK   22  A    between atoms: _49  and  _50
REMARK   23  A    between atoms: _53  and  _55
REMARK   24  A    between atoms: _55  and  _56
REMARK   25  A    between atoms: _55  and  _58
REMARK   26  A    between atoms: _58  and  _59
REMARK   27  A    between atoms: _64  and  _65
REMARK   28  A    between atoms: _67  and  _69
REMARK   29  A    between atoms: _69  and  _70
REMARK   30  A    between atoms: _69  and  _72
REMARK   31  A    between atoms: _72  and  _73
REMARK   32  A    between atoms: _78  and  _80
REMARK   33  A    between atoms: _80  and  _81
REMARK   34  A    between atoms: _80  and  _83
REMARK   35  A    between atoms: _83  and  _84
REMARK   36  A    between atoms: _87  and  _89
REMARK   37  A    between atoms: _89  and  _90
REMARK   38  A    between atoms: _89  and  _92
REMARK   39  A    between atoms: _92  and  _93
REMARK   40  A    between atoms: _93  and  _94
REMARK   41  A    between atoms: _99  and  _101
REMARK   42  A    between atoms: _101  and  _102
REMARK   43  A    between atoms: _101  and  _104
REMARK   44  A    between atoms: _104  and  _105
REMARK   45  A    between atoms: _115  and  _117
REMARK   46  A    between atoms: _117  and  _118
REMARK   47  A    between atoms: _117  and  _120
REMARK   48  A    between atoms: _120  and  _121
REMARK   49  A    between atoms: _124  and  _126
REMARK   50  A    between atoms: _126  and  _127
REMARK   51  A    between atoms: _126  and  _129
REMARK   52  A    between atoms: _129  and  _130
REMARK   53  A    between atoms: _133  and  _135
REMARK   54  A    between atoms: _135  and  _136
REMARK   55  A    between atoms: _135  and  _138
REMARK   56  A    between atoms: _138  and  _139
REMARK   57  A    between atoms: _139  and  _140
REMARK   58  A    between atoms: _142  and  _144
REMARK   59  A    between atoms: _144  and  _145
REMARK   60  A    between atoms: _148  and  _150
REMARK   61  A    between atoms: _150  and  _151
REMARK   62  A    between atoms: _154  and  _156
REMARK   63  A    between atoms: _156  and  _157
REMARK   64  A    between atoms: _156  and  _159
REMARK   65  A    between atoms: _159  and  _160
REMARK   66  A    between atoms: _160  and  _161
REMARK   67  A    between atoms: _163  and  _165
REMARK   68  A    between atoms: _165  and  _166
REMARK   69  A    between atoms: _168  and  _170
REMARK   70  A    between atoms: _170  and  _171
REMARK   71  A    between atoms: _170  and  _173
REMARK   72  A    between atoms: _173  and  _174
REMARK   73  A    between atoms: _177  and  _179
REMARK   74  A    between atoms: _179  and  _180
REMARK   75  A    between atoms: _179  and  _182
REMARK   76  A    between atoms: _182  and  _183
REMARK   77  A    between atoms: _183  and  _184
REMARK   78  A    between atoms: _189  and  _191
REMARK   79  A    between atoms: _191  and  _192
REMARK   80  A    between atoms: _191  and  _194
REMARK   81  A    between atoms: _194  and  _195
REMARK   82  A    between atoms: _195  and  _196
REMARK   83  A    between atoms: _196  and  _197
REMARK   84  A    between atoms: _206  and  _208
REMARK   85  A    between atoms: _208  and  _209
REMARK   86  A    between atoms: _208  and  _211
REMARK   87  A    between atoms: _211  and  _212
REMARK   88  A    between atoms: _218  and  _220
REMARK   89  A    between atoms: _220  and  _221
REMARK   90  A    between atoms: _220  and  _223
REMARK   91  A    between atoms: _223  and  _224
REMARK   92  A    between atoms: _227  and  _229
REMARK   93  A    between atoms: _229  and  _230
REMARK   94  A    between atoms: _229  and  _232
REMARK   95  A    between atoms: _232  and  _233
REMARK   96  A    between atoms: _236  and  _238
REMARK   97  A    between atoms: _238  and  _239
REMARK   98  A    between atoms: _238  and  _241
REMARK   99  A    between atoms: _241  and  _242
REMARK  100  A    between atoms: _246  and  _247
REMARK  101  A    between atoms: _252  and  _254
REMARK  102  A    between atoms: _254  and  _255
REMARK  103  A    between atoms: _254  and  _257
REMARK  104  A    between atoms: _257  and  _258
REMARK  105  A    between atoms: _263  and  _265
REMARK  106  A    between atoms: _265  and  _266
REMARK  107  A    between atoms: _265  and  _268
REMARK  108  A    between atoms: _268  and  _269
REMARK  109  A    between atoms: _272  and  _274
REMARK  110  A    between atoms: _274  and  _275
REMARK  111  A    between atoms: _274  and  _277
REMARK  112  A    between atoms: _277  and  _278
REMARK  113  A    between atoms: _278  and  _279
REMARK  114  A    between atoms: _284  and  _286
REMARK  115  A    between atoms: _286  and  _287
REMARK  116  A    between atoms: _290  and  _292
REMARK  117  A    between atoms: _292  and  _293
REMARK  118  A    between atoms: _295  and  _297
REMARK  119  A    between atoms: _297  and  _298
REMARK  120  A    between atoms: _297  and  _300
REMARK  121  A    between atoms: _300  and  _301
REMARK  122  A    between atoms: _304  and  _306
REMARK  123  A    between atoms: _306  and  _307
REMARK  124  A    between atoms: _306  and  _309
REMARK  125  A    between atoms: _309  and  _310
REMARK  126  A    between atoms: _312  and  _314
REMARK  127  A    between atoms: _314  and  _315
REMARK  128  A    between atoms: _314  and  _317
REMARK  129  A    between atoms: _317  and  _318
REMARK  130  A    between atoms: _323  and  _325
REMARK  131  A    between atoms: _325  and  _326
REMARK  132  A    between atoms: _325  and  _328
REMARK  133  A    between atoms: _328  and  _329
REMARK  134  A    between atoms: _329  and  _330
REMARK  135  A    between atoms: _333  and  _335
REMARK  136  A    between atoms: _335  and  _336
REMARK  137  A    between atoms: _339  and  _341
REMARK  138  A    between atoms: _341  and  _342
REMARK  139  A    between atoms: _341  and  _344
REMARK  140  A    between atoms: _344  and  _345
REMARK  141  A    between atoms: _351  and  _353
REMARK  142  A    between atoms: _353  and  _354
REMARK  143  A    between atoms: _353  and  _356
REMARK  144  A    between atoms: _356  and  _357
REMARK  145  A    between atoms: _360  and  _362
REMARK  146  A    between atoms: _362  and  _363
REMARK  147  A    between atoms: _362  and  _365
REMARK  148  A    between atoms: _365  and  _366
REMARK  149  A    between atoms: _369  and  _371
REMARK  150  A    between atoms: _371  and  _372
REMARK  151  A    between atoms: _371  and  _374
REMARK  152  A    between atoms: _374  and  _375
REMARK  153  A    between atoms: _378  and  _380
REMARK  154  A    between atoms: _380  and  _381
REMARK  155  A    between atoms: _380  and  _383
REMARK  156  A    between atoms: _383  and  _384
REMARK  157  A    between atoms: _387  and  _389
REMARK  158  A    between atoms: _389  and  _390
REMARK  159  A    between atoms: _389  and  _392
REMARK  160  A    between atoms: _392  and  _393
REMARK  161  A    between atoms: _396  and  _398
REMARK  162  A    between atoms: _398  and  _399
REMARK  163  A    between atoms: _402  and  _404
REMARK  164  A    between atoms: _404  and  _405
REMARK  165  A    between atoms: _404  and  _407
REMARK  166  A    between atoms: _407  and  _408
REMARK  167  A    between atoms: _410  and  _412
REMARK  168  A    between atoms: _412  and  _413
REMARK  169  A    between atoms: _412  and  _415
REMARK  170  A    between atoms: _418  and  _420
REMARK  171  A    between atoms: _420  and  _421
REMARK  172  A    between atoms: _420  and  _423
REMARK  173  A    between atoms: _423  and  _424
REMARK  174  A    between atoms: _426  and  _428
REMARK  175  A    between atoms: _428  and  _429
REMARK  176  A    between atoms: _428  and  _431
REMARK  177  A    between atoms: _431  and  _432
REMARK  178  A    between atoms: _438  and  _440
REMARK  179  A    between atoms: _440  and  _441
REMARK  180  A    between atoms: _440  and  _443
REMARK  181  A    between atoms: _443  and  _444
REMARK  182  A    between atoms: _447  and  _449
REMARK  183  A    between atoms: _449  and  _450
REMARK  184  A    between atoms: _449  and  _452
REMARK  185  A    between atoms: _452  and  _453
REMARK  186  A    between atoms: _453  and  _454
REMARK  187  A    between atoms: _456  and  _458
REMARK  188  A    between atoms: _458  and  _459
REMARK  189  A    between atoms: _461  and  _463
REMARK  190  A    between atoms: _463  and  _464
REMARK  191  A    between atoms: _463  and  _466
REMARK  192  A    between atoms: _466  and  _467
REMARK  193  A    between atoms: _470  and  _472
REMARK  194  A    between atoms: _472  and  _473
REMARK  195  A    between atoms: _472  and  _475
REMARK  196  A    between atoms: _475  and  _476
REMARK  197  A    between atoms: _482  and  _484
REMARK  198  A    between atoms: _484  and  _485
REMARK  199  A    between atoms: _487  and  _489
REMARK  200  A    between atoms: _489  and  _490
REMARK  201  A    between atoms: _489  and  _492
REMARK  202  A    between atoms: _492  and  _493
REMARK  203  A    between atoms: _493  and  _494
REMARK  204  A    between atoms: _494  and  _495
REMARK  205  A    between atoms: _495  and  _496
REMARK  206  A    between atoms: _500  and  _502
REMARK  207  A    between atoms: _502  and  _503
REMARK  208  A    between atoms: _505  and  _507
REMARK  209  A    between atoms: _507  and  _508
REMARK  210  A    between atoms: _507  and  _510
REMARK  211  A    between atoms: _513  and  _515
REMARK  212  A    between atoms: _515  and  _516
REMARK  213  A    between atoms: _518  and  _520
REMARK  214  A    between atoms: _520  and  _521
REMARK  215  A    between atoms: _520  and  _523
REMARK  216  A    between atoms: _523  and  _524
REMARK                            x       y       z     vdW  Elec       q    Type
REMARK                         _______ _______ _______ _____ _____    ______ ____
ROOT
ATOM      1  NE  ARG A   1      12.563 -10.036  -6.552  0.00  0.00    -0.265 N 
ATOM      2  CZ  ARG A   1      13.410  -9.165  -6.009  0.00  0.00    +0.342 C 
ATOM      3  NH2 ARG A   1      13.939  -9.397  -4.814  0.00  0.00    -0.292 N 
ATOM      4 HH21 ARG A   1      13.692 -10.264  -4.296  0.00  0.00    +0.255 HD
ATOM      5 HH22 ARG A   1      14.600  -8.712  -4.396  0.00  0.00    +0.255 HD
ATOM      6  NH1 ARG A   1      13.744  -8.067  -6.665  0.00  0.00    -0.292 N 
ATOM      7 HH11 ARG A   1      14.406  -7.388  -6.239  0.00  0.00    +0.255 HD
ATOM      8 HH12 ARG A   1      13.345  -7.882  -7.607  0.00  0.00    +0.255 HD
ATOM      9  HE  ARG A   1      12.277  -9.872  -7.538  0.00  0.00    +0.259 HD
ENDROOT
BRANCH   1  10
ATOM     10  CD  ARG A   1      11.998 -11.212  -5.872  0.00  0.00    +0.174 C 
BRANCH  10  11
ATOM     11  CG  ARG A   1      10.473 -11.138  -5.946  0.00  0.00    +0.045 C 
BRANCH  11  12
ATOM     12  CB  ARG A   1       9.880 -12.330  -5.215  0.00  0.00    +0.029 C 
BRANCH  12  13
ATOM     13  CA  ARG A   1       8.356 -12.329  -5.265  0.00  0.00    +0.133 C 
BRANCH  13  14
ATOM     14  N   ARG A   1       7.790 -11.214  -4.488  0.00  0.00    -0.239 NA
ATOM     15  H   ARG A   1       8.420 -10.608  -3.925  0.00  0.00    +0.142 HD
ENDBRANCH  13  14
BRANCH  13  16
ATOM     16  C   ARG A   1       7.854 -13.665  -4.727  0.00  0.00    +0.224 C 
ATOM     17  O   ARG A   1       7.749 -14.637  -5.500  0.00  0.00    -0.287 OA
ENDBRANCH  13  16
ENDBRANCH  12  13
ENDBRANCH  11  12
ENDBRANCH  10  11
ENDBRANCH   1  10
TORSDOF 6
REMARK  Name = ../refined-set-2016/4pp0/4pp0_pocket.pdb
REMARK  216 active torsions:
REMARK  status: ('A' for Active; 'I' for Inactive)
REMARK    1  A    between atoms: _1  and  _3
REMARK    2  A    between atoms: _3  and  _4
REMARK    3  A    between atoms: _3  and  _6
REMARK    4  A    between atoms: _6  and  _7
REMARK    5  A    between atoms: _10  and  _12
REMARK    6  A    between atoms: _12  and  _13
REMARK    7  A    between atoms: _12  and  _15
REMARK    8  A    between atoms: _15  and  _16
REMARK    9  A    between atoms: _16  and  _17
REMARK   10  A    between atoms: _20  and  _22
REMARK   11  A    between atoms: _22  and  _23
REMARK   12  A    between atoms: _25  and  _27
REMARK   13  A    between atoms: _27  and  _28
REMARK   14  A    between atoms: _27  and  _30
REMARK   15  A    between atoms: _30  and  _31
REMARK   16  A    between atoms: _33  and  _35
REMARK   17  A    between atoms: _35  and  _36
REMARK   18  A    between atoms: _35  and  _38
REMARK   19  A    between atoms: _38  and  _39
REMARK   20  A    between atoms: _44  and  _45
REMARK   21  A    between atoms: _47  and  _49
REMARK   22  A    between atoms: _49  and  _50
REMARK   23  A    between atoms: _53  and  _55
REMARK   24  A    between atoms: _55  and  _56
REMARK   25  A    between atoms: _55  and  _58
REMARK   26  A    between atoms: _58  and  _59
REMARK   27  A    between atoms: _64  and  _65
REMARK   28  A    between atoms: _67  and  _69
REMARK   29  A    between atoms: _69  and  _70
REMARK   30  A    between atoms: _69  and  _72
REMARK   31  A    between atoms: _72  and  _73
REMARK   32  A    between atoms: _78  and  _80
REMARK   33  A    between atoms: _80  and  _81
REMARK   34  A    between atoms: _80  and  _83
REMARK   35  A    between atoms: _83  and  _84
REMARK   36  A    between atoms: _87  and  _89
REMARK   37  A    between atoms: _89  and  _90
REMARK   38  A    between atoms: _89  and  _92
REMARK   39  A    between atoms: _92  and  _93
REMARK   40  A    between atoms: _93  and  _94
REMARK   41  A    between atoms: _99  and  _101
REMARK   42  A    between atoms: _101  and  _102
REMARK   43  A    between atoms: _101  and  _104
REMARK   44  A    between atoms: _104  and  _105
REMARK   45  A    between atoms: _115  and  _117
REMARK   46  A    between atoms: _117  and  _118
REMARK   47  A    between atoms: _117  and  _120
REMARK   48  A    between atoms: _120  and  _121
REMARK   49  A    between atoms: _124  and  _126
REMARK   50  A    between atoms: _126  and  _127
REMARK   51  A    between atoms: _126  and  _129
REMARK   52  A    between atoms: _129  and  _130
REMARK   53  A    between atoms: _133  and  _135
REMARK   54  A    between atoms: _135  and  _136
REMARK   55  A    between atoms: _135  and  _138
REMARK   56  A    between atoms: _138  and  _139
REMARK   57  A    between atoms: _139  and  _140
REMARK   58  A    between atoms: _142  and  _144
REMARK   59  A    between atoms: _144  and  _145
REMARK   60  A    between atoms: _148  and  _150
REMARK   61  A    between atoms: _150  and  _151
REMARK   62  A    between atoms: _154  and  _156
REMARK   63  A    between atoms: _156  and  _157
REMARK   64  A    between atoms: _156  and  _159
REMARK   65  A    between atoms: _159  and  _160
REMARK   66  A    between atoms: _160  and  _161
REMARK   67  A    between atoms: _163  and  _165
REMARK   68  A    between atoms: _165  and  _166
REMARK   69  A    between atoms: _168  and  _170
REMARK   70  A    between atoms: _170  and  _171
REMARK   71  A    between atoms: _170  and  _173
REMARK   72  A    between atoms: _173  and  _174
REMARK   73  A    between atoms: _177  and  _179
REMARK   74  A    between atoms: _179  and  _180
REMARK   75  A    between atoms: _179  and  _182
REMARK   76  A    between atoms: _182  and  _183
REMARK   77  A    between atoms: _183  and  _184
REMARK   78  A    between atoms: _189  and  _191
REMARK   79  A    between atoms: _191  and  _192
REMARK   80  A    between atoms: _191  and  _194
REMARK   81  A    between atoms: _194  and  _195
REMARK   82  A    between atoms: _195  and  _196
REMARK   83  A    between atoms: _196  and  _197
REMARK   84  A    between atoms: _206  and  _208
REMARK   85  A    between atoms: _208  and  _209
REMARK   86  A    between atoms: _208  and  _211
REMARK   87  A    between atoms: _211  and  _212
REMARK   88  A    between atoms: _218  and  _220
REMARK   89  A    between atoms: _220  and  _221
REMARK   90  A    between atoms: _220  and  _223
REMARK   91  A    between atoms: _223  and  _224
REMARK   92  A    between atoms: _227  and  _229
REMARK   93  A    between atoms: _229  and  _230
REMARK   94  A    between atoms: _229  and  _232
REMARK   95  A    between atoms: _232  and  _233
REMARK   96  A    between atoms: _236  and  _238
REMARK   97  A    between atoms: _238  and  _239
REMARK   98  A    between atoms: _238  and  _241
REMARK   99  A    between atoms: _241  and  _242
REMARK  100  A    between atoms: _246  and  _247
REMARK  101  A    between atoms: _252  and  _254
REMARK  102  A    between atoms: _254  and  _255
REMARK  103  A    between atoms: _254  and  _257
REMARK  104  A    between atoms: _257  and  _258
REMARK  105  A    between atoms: _263  and  _265
REMARK  106  A    between atoms: _265  and  _266
REMARK  107  A    between atoms: _265  and  _268
REMARK  108  A    between atoms: _268  and  _269
REMARK  109  A    between atoms: _272  and  _274
REMARK  110  A    between atoms: _274  and  _275
REMARK  111  A    between atoms: _274  and  _277
REMARK  112  A    between atoms: _277  and  _278
REMARK  113  A    between atoms: _278  and  _279
REMARK  114  A    between atoms: _284  and  _286
REMARK  115  A    between atoms: _286  and  _287
REMARK  116  A    between atoms: _290  and  _292
REMARK  117  A    between atoms: _292  and  _293
REMARK  118  A    between atoms: _295  and  _297
REMARK  119  A    between atoms: _297  and  _298
REMARK  120  A    between atoms: _297  and  _300
REMARK  121  A    between atoms: _300  and  _301
REMARK  122  A    between atoms: _304  and  _306
REMARK  123  A    between atoms: _306  and  _307
REMARK  124  A    between atoms: _306  and  _309
REMARK  125  A    between atoms: _309  and  _310
REMARK  126  A    between atoms: _312  and  _314
REMARK  127  A    between atoms: _314  and  _315
REMARK  128  A    between atoms: _314  and  _317
REMARK  129  A    between atoms: _317  and  _318
REMARK  130  A    between atoms: _323  and  _325
REMARK  131  A    between atoms: _325  and  _326
REMARK  132  A    between atoms: _325  and  _328
REMARK  133  A    between atoms: _328  and  _329
REMARK  134  A    between atoms: _329  and  _330
REMARK  135  A    between atoms: _333  and  _335
REMARK  136  A    between atoms: _335  and  _336
REMARK  137  A    between atoms: _339  and  _341
REMARK  138  A    between atoms: _341  and  _342
REMARK  139  A    between atoms: _341  and  _344
REMARK  140  A    between atoms: _344  and  _345
REMARK  141  A    between atoms: _351  and  _353
REMARK  142  A    between atoms: _353  and  _354
REMARK  143  A    between atoms: _353  and  _356
REMARK  144  A    between atoms: _356  and  _357
REMARK  145  A    between atoms: _360  and  _362
REMARK  146  A    between atoms: _362  and  _363
REMARK  147  A    between atoms: _362  and  _365
REMARK  148  A    between atoms: _365  and  _366
REMARK  149  A    between atoms: _369  and  _371
REMARK  150  A    between atoms: _371  and  _372
REMARK  151  A    between atoms: _371  and  _374
REMARK  152  A    between atoms: _374  and  _375
REMARK  153  A    between atoms: _378  and  _380
REMARK  154  A    between atoms: _380  and  _381
REMARK  155  A    between atoms: _380  and  _383
REMARK  156  A    between atoms: _383  and  _384
REMARK  157  A    between atoms: _387  and  _389
REMARK  158  A    between atoms: _389  and  _390
REMARK  159  A    between atoms: _389  and  _392
REMARK  160  A    between atoms: _392  and  _393
REMARK  161  A    between atoms: _396  and  _398
REMARK  162  A    between atoms: _398  and  _399
REMARK  163  A    between atoms: _402  and  _404
REMARK  164  A    between atoms: _404  and  _405
REMARK  165  A    between atoms: _404  and  _407
REMARK  166  A    between atoms: _407  and  _408
REMARK  167  A    between atoms: _410  and  _412
REMARK  168  A    between atoms: _412  and  _413
REMARK  169  A    between atoms: _412  and  _415
REMARK  170  A    between atoms: _418  and  _420
REMARK  171  A    between atoms: _420  and  _421
REMARK  172  A    between atoms: _420  and  _423
REMARK  173  A    between atoms: _423  and  _424
REMARK  174  A    between atoms: _426  and  _428
REMARK  175  A    between atoms: _428  and  _429
REMARK  176  A    between atoms: _428  and  _431
REMARK  177  A    between atoms: _431  and  _432
REMARK  178  A    between atoms: _438  and  _440
REMARK  179  A    between atoms: _440  and  _441
REMARK  180  A    between atoms: _440  and  _443
REMARK  181  A    between atoms: _443  and  _444
REMARK  182  A    between atoms: _447  and  _449
REMARK  183  A    between atoms: _449  and  _450
REMARK  184  A    between atoms: _449  and  _452
REMARK  185  A    between atoms: _452  and  _453
REMARK  186  A    between atoms: _453  and  _454
REMARK  187  A    between atoms: _456  and  _458
REMARK  188  A    between atoms: _458  and  _459
REMARK  189  A    between atoms: _461  and  _463
REMARK  190  A    between atoms: _463  and  _464
REMARK  191  A    between atoms: _463  and  _466
REMARK  192  A    between atoms: _466  and  _467
REMARK  193  A    between atoms: _470  and  _472
REMARK  194  A    between atoms: _472  and  _473
REMARK  195  A    between atoms: _472  and  _475
REMARK  196  A    between atoms: _475  and  _476
REMARK  197  A    between atoms: _482  and  _484
REMARK  198  A    between atoms: _484  and  _485
REMARK  199  A    between atoms: _487  and  _489
REMARK  200  A    between atoms: _489  and  _490
REMARK  201  A    between atoms: _489  and  _492
REMARK  202  A    between atoms: _492  and  _493
REMARK  203  A    between atoms: _493  and  _494
REMARK  204  A    between atoms: _494  and  _495
REMARK  205  A    between atoms: _495  and  _496
REMARK  206  A    between atoms: _500  and  _502
REMARK  207  A    between atoms: _502  and  _503
REMARK  208  A    between atoms: _505  and  _507
REMARK  209  A    between atoms: _507  and  _508
REMARK  210  A    between atoms: _507  and  _510
REMARK  211  A    between atoms: _513  and  _515
REMARK  212  A    between atoms: _515  and  _516
REMARK  213  A    between atoms: _518  and  _520
REMARK  214  A    between atoms: _520  and  _521
REMARK  215  A    between atoms: _520  and  _523
REMARK  216  A    between atoms: _523  and  _524
REMARK                            x       y       z     vdW  Elec       q    Type
REMARK                         _______ _______ _______ _____ _____    ______ ____
ROOT
ATOM      1  CB  PHE A   1      13.289 -17.806  -1.210  0.00  0.00    +0.051 C 
ENDROOT
BRANCH   1   2
ATOM      2  CG  PHE A   1      13.107 -16.697  -2.206  0.00  0.00    -0.020 A 
ATOM      3  CD2 PHE A   1      11.861 -16.096  -2.382  0.00  0.00    -0.004 A 
ATOM      4  CE2 PHE A   1      11.691 -15.061  -3.308  0.00  0.00    -0.000 A 
ATOM      5  CZ  PHE A   1      12.770 -14.620  -4.044  0.00  0.00    -0.000 A 
ATOM      6  CE1 PHE A   1      14.014 -15.199  -3.873  0.00  0.00    -0.000 A 
ATOM      7  CD1 PHE A   1      14.181 -16.235  -2.948  0.00  0.00    -0.004 A 
ENDBRANCH   1   2
BRANCH   1   8
ATOM      8  CA  PHE A   1      13.160 -19.208  -1.829  0.00  0.00    +0.137 C 
BRANCH   8   9
ATOM      9  N   PHE A   1      11.774 -19.531  -2.112  0.00  0.00    -0.239 NA
ATOM     10  H   PHE A   1      11.126 -19.740  -1.326  0.00  0.00    +0.142 HD
ENDBRANCH   8   9
BRANCH   8  11
ATOM     11  C   PHE A   1      13.737 -20.177  -0.844  0.00  0.00    +0.224 C 
ATOM     12  O   PHE A   1      13.030 -20.698   0.026  0.00  0.00    -0.287 OA
ENDBRANCH   8  11
ENDBRANCH   1   8
TORSDOF 4
REMARK  Name = ../refined-set-2016/4pp0/4pp0_pocket.pdb
REMARK  216 active torsions:
REMARK  status: ('A' for Active; 'I' for Inactive)
REMARK    1  A    between atoms: _1  and  _3
REMARK    2  A    between atoms: _3  and  _4
REMARK    3  A    between atoms: _3  and  _6
REMARK    4  A    between atoms: _6  and  _7
REMARK    5  A    between atoms: _10  and  _12
REMARK    6  A    between atoms: _12  and  _13
REMARK    7  A    between atoms: _12  and  _15
REMARK    8  A    between atoms: _15  and  _16
REMARK    9  A    between atoms: _16  and  _17
REMARK   10  A    between atoms: _20  and  _22
REMARK   11  A    between atoms: _22  and  _23
REMARK   12  A    between atoms: _25  and  _27
REMARK   13  A    between atoms: _27  and  _28
REMARK   14  A    between atoms: _27  and  _30
REMARK   15  A    between atoms: _30  and  _31
REMARK   16  A    between atoms: _33  and  _35
REMARK   17  A    between atoms: _35  and  _36
REMARK   18  A    between atoms: _35  and  _38
REMARK   19  A    between atoms: _38  and  _39
REMARK   20  A    between atoms: _44  and  _45
REMARK   21  A    between atoms: _47  and  _49
REMARK   22  A    between atoms: _49  and  _50
REMARK   23  A    between atoms: _53  and  _55
REMARK   24  A    between atoms: _55  and  _56
REMARK   25  A    between atoms: _55  and  _58
REMARK   26  A    between atoms: _58  and  _59
REMARK   27  A    between atoms: _64  and  _65
REMARK   28  A    between atoms: _67  and  _69
REMARK   29  A    between atoms: _69  and  _70
REMARK   30  A    between atoms: _69  and  _72
REMARK   31  A    between atoms: _72  and  _73
REMARK   32  A    between atoms: _78  and  _80
REMARK   33  A    between atoms: _80  and  _81
REMARK   34  A    between atoms: _80  and  _83
REMARK   35  A    between atoms: _83  and  _84
REMARK   36  A    between atoms: _87  and  _89
REMARK   37  A    between atoms: _89  and  _90
REMARK   38  A    between atoms: _89  and  _92
REMARK   39  A    between atoms: _92  and  _93
REMARK   40  A    between atoms: _93  and  _94
REMARK   41  A    between atoms: _99  and  _101
REMARK   42  A    between atoms: _101  and  _102
REMARK   43  A    between atoms: _101  and  _104
REMARK   44  A    between atoms: _104  and  _105
REMARK   45  A    between atoms: _115  and  _117
REMARK   46  A    between atoms: _117  and  _118
REMARK   47  A    between atoms: _117  and  _120
REMARK   48  A    between atoms: _120  and  _121
REMARK   49  A    between atoms: _124  and  _126
REMARK   50  A    between atoms: _126  and  _127
REMARK   51  A    between atoms: _126  and  _129
REMARK   52  A    between atoms: _129  and  _130
REMARK   53  A    between atoms: _133  and  _135
REMARK   54  A    between atoms: _135  and  _136
REMARK   55  A    between atoms: _135  and  _138
REMARK   56  A    between atoms: _138  and  _139
REMARK   57  A    between atoms: _139  and  _140
REMARK   58  A    between atoms: _142  and  _144
REMARK   59  A    between atoms: _144  and  _145
REMARK   60  A    between atoms: _148  and  _150
REMARK   61  A    between atoms: _150  and  _151
REMARK   62  A    between atoms: _154  and  _156
REMARK   63  A    between atoms: _156  and  _157
REMARK   64  A    between atoms: _156  and  _159
REMARK   65  A    between atoms: _159  and  _160
REMARK   66  A    between atoms: _160  and  _161
REMARK   67  A    between atoms: _163  and  _165
REMARK   68  A    between atoms: _165  and  _166
REMARK   69  A    between atoms: _168  and  _170
REMARK   70  A    between atoms: _170  and  _171
REMARK   71  A    between atoms: _170  and  _173
REMARK   72  A    between atoms: _173  and  _174
REMARK   73  A    between atoms: _177  and  _179
REMARK   74  A    between atoms: _179  and  _180
REMARK   75  A    between atoms: _179  and  _182
REMARK   76  A    between atoms: _182  and  _183
REMARK   77  A    between atoms: _183  and  _184
REMARK   78  A    between atoms: _189  and  _191
REMARK   79  A    between atoms: _191  and  _192
REMARK   80  A    between atoms: _191  and  _194
REMARK   81  A    between atoms: _194  and  _195
REMARK   82  A    between atoms: _195  and  _196
REMARK   83  A    between atoms: _196  and  _197
REMARK   84  A    between atoms: _206  and  _208
REMARK   85  A    between atoms: _208  and  _209
REMARK   86  A    between atoms: _208  and  _211
REMARK   87  A    between atoms: _211  and  _212
REMARK   88  A    between atoms: _218  and  _220
REMARK   89  A    between atoms: _220  and  _221
REMARK   90  A    between atoms: _220  and  _223
REMARK   91  A    between atoms: _223  and  _224
REMARK   92  A    between atoms: _227  and  _229
REMARK   93  A    between atoms: _229  and  _230
REMARK   94  A    between atoms: _229  and  _232
REMARK   95  A    between atoms: _232  and  _233
REMARK   96  A    between atoms: _236  and  _238
REMARK   97  A    between atoms: _238  and  _239
REMARK   98  A    between atoms: _238  and  _241
REMARK   99  A    between atoms: _241  and  _242
REMARK  100  A    between atoms: _246  and  _247
REMARK  101  A    between atoms: _252  and  _254
REMARK  102  A    between atoms: _254  and  _255
REMARK  103  A    between atoms: _254  and  _257
REMARK  104  A    between atoms: _257  and  _258
REMARK  105  A    between atoms: _263  and  _265
REMARK  106  A    between atoms: _265  and  _266
REMARK  107  A    between atoms: _265  and  _268
REMARK  108  A    between atoms: _268  and  _269
REMARK  109  A    between atoms: _272  and  _274
REMARK  110  A    between atoms: _274  and  _275
REMARK  111  A    between atoms: _274  and  _277
REMARK  112  A    between atoms: _277  and  _278
REMARK  113  A    between atoms: _278  and  _279
REMARK  114  A    between atoms: _284  and  _286
REMARK  115  A    between atoms: _286  and  _287
REMARK  116  A    between atoms: _290  and  _292
REMARK  117  A    between atoms: _292  and  _293
REMARK  118  A    between atoms: _295  and  _297
REMARK  119  A    between atoms: _297  and  _298
REMARK  120  A    between atoms: _297  and  _300
REMARK  121  A    between atoms: _300  and  _301
REMARK  122  A    between atoms: _304  and  _306
REMARK  123  A    between atoms: _306  and  _307
REMARK  124  A    between atoms: _306  and  _309
REMARK  125  A    between atoms: _309  and  _310
REMARK  126  A    between atoms: _312  and  _314
REMARK  127  A    between atoms: _314  and  _315
REMARK  128  A    between atoms: _314  and  _317
REMARK  129  A    between atoms: _317  and  _318
REMARK  130  A    between atoms: _323  and  _325
REMARK  131  A    between atoms: _325  and  _326
REMARK  132  A    between atoms: _325  and  _328
REMARK  133  A    between atoms: _328  and  _329
REMARK  134  A    between atoms: _329  and  _330
REMARK  135  A    between atoms: _333  and  _335
REMARK  136  A    between atoms: _335  and  _336
REMARK  137  A    between atoms: _339  and  _341
REMARK  138  A    between atoms: _341  and  _342
REMARK  139  A    between atoms: _341  and  _344
REMARK  140  A    between atoms: _344  and  _345
REMARK  141  A    between atoms: _351  and  _353
REMARK  142  A    between atoms: _353  and  _354
REMARK  143  A    between atoms: _353  and  _356
REMARK  144  A    between atoms: _356  and  _357
REMARK  145  A    between atoms: _360  and  _362
REMARK  146  A    between atoms: _362  and  _363
REMARK  147  A    between atoms: _362  and  _365
REMARK  148  A    between atoms: _365  and  _366
REMARK  149  A    between atoms: _369  and  _371
REMARK  150  A    between atoms: _371  and  _372
REMARK  151  A    between atoms: _371  and  _374
REMARK  152  A    between atoms: _374  and  _375
REMARK  153  A    between atoms: _378  and  _380
REMARK  154  A    between atoms: _380  and  _381
REMARK  155  A    between atoms: _380  and  _383
REMARK  156  A    between atoms: _383  and  _384
REMARK  157  A    between atoms: _387  and  _389
REMARK  158  A    between atoms: _389  and  _390
REMARK  159  A    between atoms: _389  and  _392
REMARK  160  A    between atoms: _392  and  _393
REMARK  161  A    between atoms: _396  and  _398
REMARK  162  A    between atoms: _398  and  _399
REMARK  163  A    between atoms: _402  and  _404
REMARK  164  A    between atoms: _404  and  _405
REMARK  165  A    between atoms: _404  and  _407
REMARK  166  A    between atoms: _407  and  _408
REMARK  167  A    between atoms: _410  and  _412
REMARK  168  A    between atoms: _412  and  _413
REMARK  169  A    between atoms: _412  and  _415
REMARK  170  A    between atoms: _418  and  _420
REMARK  171  A    between atoms: _420  and  _421
REMARK  172  A    between atoms: _420  and  _423
REMARK  173  A    between atoms: _423  and  _424
REMARK  174  A    between atoms: _426  and  _428
REMARK  175  A    between atoms: _428  and  _429
REMARK  176  A    between atoms: _428  and  _431
REMARK  177  A    between atoms: _431  and  _432
REMARK  178  A    between atoms: _438  and  _440
REMARK  179  A    between atoms: _440  and  _441
REMARK  180  A    between atoms: _440  and  _443
REMARK  181  A    between atoms: _443  and  _444
REMARK  182  A    between atoms: _447  and  _449
REMARK  183  A    between atoms: _449  and  _450
REMARK  184  A    between atoms: _449  and  _452
REMARK  185  A    between atoms: _452  and  _453
REMARK  186  A    between atoms: _453  and  _454
REMARK  187  A    between atoms: _456  and  _458
REMARK  188  A    between atoms: _458  and  _459
REMARK  189  A    between atoms: _461  and  _463
REMARK  190  A    between atoms: _463  and  _464
REMARK  191  A    between atoms: _463  and  _466
REMARK  192  A    between atoms: _466  and  _467
REMARK  193  A    between atoms: _470  and  _472
REMARK  194  A    between atoms: _472  and  _473
REMARK  195  A    between atoms: _472  and  _475
REMARK  196  A    between atoms: _475  and  _476
REMARK  197  A    between atoms: _482  and  _484
REMARK  198  A    between atoms: _484  and  _485
REMARK  199  A    between atoms: _487  and  _489
REMARK  200  A    between atoms: _489  and  _490
REMARK  201  A    between atoms: _489  and  _492
REMARK  202  A    between atoms: _492  and  _493
REMARK  203  A    between atoms: _493  and  _494
REMARK  204  A    between atoms: _494  and  _495
REMARK  205  A    between atoms: _495  and  _496
REMARK  206  A    between atoms: _500  and  _502
REMARK  207  A    between atoms: _502  and  _503
REMARK  208  A    between atoms: _505  and  _507
REMARK  209  A    between atoms: _507  and  _508
REMARK  210  A    between atoms: _507  and  _510
REMARK  211  A    between atoms: _513  and  _515
REMARK  212  A    between atoms: _515  and  _516
REMARK  213  A    between atoms: _518  and  _520
REMARK  214  A    between atoms: _520  and  _521
REMARK  215  A    between atoms: _520  and  _523
REMARK  216  A    between atoms: _523  and  _524
REMARK                            x       y       z     vdW  Elec       q    Type
REMARK                         _______ _______ _______ _____ _____    ______ ____
ROOT
ATOM      1  C   THR A   3      20.576  -6.058   4.855  0.00  0.00    +0.246 C 
ATOM      2  N   PRO A   4      20.895  -4.887   5.433  0.00  0.00    -0.272 N 
ATOM      3  CD  PRO A   4      22.144  -4.514   6.137  0.00  0.00    +0.094 C 
ATOM      4  CG  PRO A   4      21.774  -3.233   6.858  0.00  0.00    +0.024 C 
ATOM      5  CB  PRO A   4      20.333  -2.939   6.615  0.00  0.00    +0.031 C 
ATOM      6  CA  PRO A   4      19.942  -3.785   5.409  0.00  0.00    +0.152 C 
ATOM      7  O   THR A   3      19.460  -6.318   4.385  0.00  0.00    -0.273 OA
ENDROOT
BRANCH   6   8
ATOM      8  C   PRO A   4      20.157  -2.988   4.092  0.00  0.00    +0.241 C 
ATOM      9  N   ASN A   5      19.361  -1.942   3.922  0.00  0.00    -0.297 N 
ATOM     10  H   ASN A   5      18.720  -1.686   4.699  0.00  0.00    +0.150 HD
ATOM     11  O   PRO A   4      21.025  -3.324   3.259  0.00  0.00    -0.273 OA
BRANCH   9  12
ATOM     12  CA  ASN A   5      19.329  -1.129   2.713  0.00  0.00    +0.158 C 
BRANCH  12  13
ATOM     13  C   ASN A   5      19.476   0.320   3.090  0.00  0.00    +0.241 C 
ATOM     14  O   ASN A   5      18.907   0.758   4.097  0.00  0.00    -0.273 OA
ATOM     15  N   THR A   6      20.256   1.075   2.316  0.00  0.00    -0.296 N 
ATOM     16  H   THR A   6      20.683   0.677   1.456  0.00  0.00    +0.150 HD
BRANCH  15  17
ATOM     17  CA  THR A   6      20.506   2.468   2.686  0.00  0.00    +0.164 C 
BRANCH  17  18
ATOM     18  CB  THR A   6      21.632   2.564   3.741  0.00  0.00    +0.136 C 
ATOM     19  CG2 THR A   6      23.042   2.418   3.133  0.00  0.00    +0.034 C 
BRANCH  18  20
ATOM     20  OG1 THR A   6      21.550   3.826   4.409  0.00  0.00    -0.382 OA
ATOM     21  HG1 THR A   6      20.670   3.905   4.855  0.00  0.00    +0.210 HD
ENDBRANCH  18  20
ENDBRANCH  17  18
BRANCH  17  22
ATOM     22  C   THR A   6      20.746   3.341   1.444  0.00  0.00    +0.229 C 
ATOM     23  O   THR A   6      20.804   2.845   0.302  0.00  0.00    -0.286 OA
ENDBRANCH  17  22
ENDBRANCH  15  17
ENDBRANCH  12  13
BRANCH  12  24
ATOM     24  CB  ASN A   5      18.020  -1.389   1.972  0.00  0.00    +0.114 C 
BRANCH  24  25
ATOM     25  CG  ASN A   5      17.875  -2.888   1.700  0.00  0.00    +0.222 C 
ATOM     26  ND2 ASN A   5      17.111  -3.586   2.551  0.00  0.00    -0.329 N 
ATOM     27 HD21 ASN A   5      16.525  -3.089   3.251  0.00  0.00    +0.145 HD
ATOM     28 HD22 ASN A   5      17.104  -4.625   2.511  0.00  0.00    +0.145 HD
ATOM     29  OD1 ASN A   5      18.584  -3.444   0.855  0.00  0.00    -0.275 OA
ENDBRANCH  24  25
ENDBRANCH  12  24
ENDBRANCH   9  12
ENDBRANCH   6   8
BRANCH   1  30
ATOM     30  CA  THR A   3      21.714  -7.042   4.650  0.00  0.00    +0.176 C 
BRANCH  30  33
ATOM     31  C   LEU A   2      22.188  -9.362   5.195  0.00  0.00    +0.241 C 
ATOM     32  O   LEU A   2      23.405  -9.144   5.300  0.00  0.00    -0.273 OA
ATOM     33  N   THR A   3      21.291  -8.414   4.883  0.00  0.00    -0.295 N 
ATOM     34  H   THR A   3      20.284  -8.663   4.807  0.00  0.00    +0.150 HD
BRANCH  31  35
ATOM     35  CA  LEU A   2      21.633 -10.743   5.479  0.00  0.00    +0.149 C 
BRANCH  35  37
ATOM     36  C   LEU A   1      22.132 -12.600   3.958  0.00  0.00    +0.238 C 
ATOM     37  N   LEU A   2      22.540 -11.730   4.898  0.00  0.00    -0.297 N 
ATOM     38  H   LEU A   2      23.528 -11.760   5.220  0.00  0.00    +0.150 HD
ATOM     39  O   LEU A   1      20.954 -12.710   3.590  0.00  0.00    -0.274 OA
BRANCH  36  40
ATOM     40  CA  LEU A   1      23.186 -13.512   3.363  0.00  0.00    +0.145 C 
BRANCH  40  41
ATOM     41  N   LEU A   1      22.534 -14.779   3.011  0.00  0.00    -0.238 NA
ATOM     42  H   LEU A   1      21.510 -14.776   2.827  0.00  0.00    +0.142 HD
ENDBRANCH  40  41
BRANCH  40  43
ATOM     43  CB  LEU A   1      23.834 -12.826   2.130  0.00  0.00    +0.026 C 
BRANCH  43  44
ATOM     44  CG  LEU A   1      25.106 -12.043   2.449  0.00  0.00    +0.002 C 
ATOM     45  CD2 LEU A   1      26.278 -13.004   2.814  0.00  0.00    +0.000 C 
ATOM     46  CD1 LEU A   1      25.541 -11.191   1.253  0.00  0.00    +0.000 C 
ENDBRANCH  43  44
ENDBRANCH  40  43
ENDBRANCH  36  40
ENDBRANCH  35  37
BRANCH  35  47
ATOM     47  CB  LEU A   2      21.496 -10.907   6.986  0.00  0.00    +0.029 C 
BRANCH  47  48
ATOM     48  CG  LEU A   2      20.930 -12.247   7.481  0.00  0.00    +0.002 C 
ATOM     49  CD2 LEU A   2      20.924 -12.273   9.007  0.00  0.00    +0.000 C 
ATOM     50  CD1 LEU A   2      19.483 -12.465   6.969  0.00  0.00    +0.000 C 
ENDBRANCH  47  48
ENDBRANCH  35  47
ENDBRANCH  31  35
ENDBRANCH  30  33
BRANCH  30  51
ATOM     51  CB  THR A   3      22.310  -6.858   3.203  0.00  0.00    +0.137 C 
ATOM     52  CG2 THR A   3      21.311  -7.208   2.080  0.00  0.00    +0.034 C 
BRANCH  51  53
ATOM     53  OG1 THR A   3      22.772  -5.489   3.046  0.00  0.00    -0.382 OA
ATOM     54  HG1 THR A   3      22.011  -4.869   3.174  0.00  0.00    +0.210 HD
ENDBRANCH  51  53
ENDBRANCH  30  51
ENDBRANCH   1  30
TORSDOF 21
REMARK  Name = ../refined-set-2016/4pp0/4pp0_pocket.pdb
REMARK  216 active torsions:
REMARK  status: ('A' for Active; 'I' for Inactive)
REMARK    1  A    between atoms: _1  and  _3
REMARK    2  A    between atoms: _3  and  _4
REMARK    3  A    between atoms: _3  and  _6
REMARK    4  A    between atoms: _6  and  _7
REMARK    5  A    between atoms: _10  and  _12
REMARK    6  A    between atoms: _12  and  _13
REMARK    7  A    between atoms: _12  and  _15
REMARK    8  A    between atoms: _15  and  _16
REMARK    9  A    between atoms: _16  and  _17
REMARK   10  A    between atoms: _20  and  _22
REMARK   11  A    between atoms: _22  and  _23
REMARK   12  A    between atoms: _25  and  _27
REMARK   13  A    between atoms: _27  and  _28
REMARK   14  A    between atoms: _27  and  _30
REMARK   15  A    between atoms: _30  and  _31
REMARK   16  A    between atoms: _33  and  _35
REMARK   17  A    between atoms: _35  and  _36
REMARK   18  A    between atoms: _35  and  _38
REMARK   19  A    between atoms: _38  and  _39
REMARK   20  A    between atoms: _44  and  _45
REMARK   21  A    between atoms: _47  and  _49
REMARK   22  A    between atoms: _49  and  _50
REMARK   23  A    between atoms: _53  and  _55
REMARK   24  A    between atoms: _55  and  _56
REMARK   25  A    between atoms: _55  and  _58
REMARK   26  A    between atoms: _58  and  _59
REMARK   27  A    between atoms: _64  and  _65
REMARK   28  A    between atoms: _67  and  _69
REMARK   29  A    between atoms: _69  and  _70
REMARK   30  A    between atoms: _69  and  _72
REMARK   31  A    between atoms: _72  and  _73
REMARK   32  A    between atoms: _78  and  _80
REMARK   33  A    between atoms: _80  and  _81
REMARK   34  A    between atoms: _80  and  _83
REMARK   35  A    between atoms: _83  and  _84
REMARK   36  A    between atoms: _87  and  _89
REMARK   37  A    between atoms: _89  and  _90
REMARK   38  A    between atoms: _89  and  _92
REMARK   39  A    between atoms: _92  and  _93
REMARK   40  A    between atoms: _93  and  _94
REMARK   41  A    between atoms: _99  and  _101
REMARK   42  A    between atoms: _101  and  _102
REMARK   43  A    between atoms: _101  and  _104
REMARK   44  A    between atoms: _104  and  _105
REMARK   45  A    between atoms: _115  and  _117
REMARK   46  A    between atoms: _117  and  _118
REMARK   47  A    between atoms: _117  and  _120
REMARK   48  A    between atoms: _120  and  _121
REMARK   49  A    between atoms: _124  and  _126
REMARK   50  A    between atoms: _126  and  _127
REMARK   51  A    between atoms: _126  and  _129
REMARK   52  A    between atoms: _129  and  _130
REMARK   53  A    between atoms: _133  and  _135
REMARK   54  A    between atoms: _135  and  _136
REMARK   55  A    between atoms: _135  and  _138
REMARK   56  A    between atoms: _138  and  _139
REMARK   57  A    between atoms: _139  and  _140
REMARK   58  A    between atoms: _142  and  _144
REMARK   59  A    between atoms: _144  and  _145
REMARK   60  A    between atoms: _148  and  _150
REMARK   61  A    between atoms: _150  and  _151
REMARK   62  A    between atoms: _154  and  _156
REMARK   63  A    between atoms: _156  and  _157
REMARK   64  A    between atoms: _156  and  _159
REMARK   65  A    between atoms: _159  and  _160
REMARK   66  A    between atoms: _160  and  _161
REMARK   67  A    between atoms: _163  and  _165
REMARK   68  A    between atoms: _165  and  _166
REMARK   69  A    between atoms: _168  and  _170
REMARK   70  A    between atoms: _170  and  _171
REMARK   71  A    between atoms: _170  and  _173
REMARK   72  A    between atoms: _173  and  _174
REMARK   73  A    between atoms: _177  and  _179
REMARK   74  A    between atoms: _179  and  _180
REMARK   75  A    between atoms: _179  and  _182
REMARK   76  A    between atoms: _182  and  _183
REMARK   77  A    between atoms: _183  and  _184
REMARK   78  A    between atoms: _189  and  _191
REMARK   79  A    between atoms: _191  and  _192
REMARK   80  A    between atoms: _191  and  _194
REMARK   81  A    between atoms: _194  and  _195
REMARK   82  A    between atoms: _195  and  _196
REMARK   83  A    between atoms: _196  and  _197
REMARK   84  A    between atoms: _206  and  _208
REMARK   85  A    between atoms: _208  and  _209
REMARK   86  A    between atoms: _208  and  _211
REMARK   87  A    between atoms: _211  and  _212
REMARK   88  A    between atoms: _218  and  _220
REMARK   89  A    between atoms: _220  and  _221
REMARK   90  A    between atoms: _220  and  _223
REMARK   91  A    between atoms: _223  and  _224
REMARK   92  A    between atoms: _227  and  _229
REMARK   93  A    between atoms: _229  and  _230
REMARK   94  A    between atoms: _229  and  _232
REMARK   95  A    between atoms: _232  and  _233
REMARK   96  A    between atoms: _236  and  _238
REMARK   97  A    between atoms: _238  and  _239
REMARK   98  A    between atoms: _238  and  _241
REMARK   99  A    between atoms: _241  and  _242
REMARK  100  A    between atoms: _246  and  _247
REMARK  101  A    between atoms: _252  and  _254
REMARK  102  A    between atoms: _254  and  _255
REMARK  103  A    between atoms: _254  and  _257
REMARK  104  A    between atoms: _257  and  _258
REMARK  105  A    between atoms: _263  and  _265
REMARK  106  A    between atoms: _265  and  _266
REMARK  107  A    between atoms: _265  and  _268
REMARK  108  A    between atoms: _268  and  _269
REMARK  109  A    between atoms: _272  and  _274
REMARK  110  A    between atoms: _274  and  _275
REMARK  111  A    between atoms: _274  and  _277
REMARK  112  A    between atoms: _277  and  _278
REMARK  113  A    between atoms: _278  and  _279
REMARK  114  A    between atoms: _284  and  _286
REMARK  115  A    between atoms: _286  and  _287
REMARK  116  A    between atoms: _290  and  _292
REMARK  117  A    between atoms: _292  and  _293
REMARK  118  A    between atoms: _295  and  _297
REMARK  119  A    between atoms: _297  and  _298
REMARK  120  A    between atoms: _297  and  _300
REMARK  121  A    between atoms: _300  and  _301
REMARK  122  A    between atoms: _304  and  _306
REMARK  123  A    between atoms: _306  and  _307
REMARK  124  A    between atoms: _306  and  _309
REMARK  125  A    between atoms: _309  and  _310
REMARK  126  A    between atoms: _312  and  _314
REMARK  127  A    between atoms: _314  and  _315
REMARK  128  A    between atoms: _314  and  _317
REMARK  129  A    between atoms: _317  and  _318
REMARK  130  A    between atoms: _323  and  _325
REMARK  131  A    between atoms: _325  and  _326
REMARK  132  A    between atoms: _325  and  _328
REMARK  133  A    between atoms: _328  and  _329
REMARK  134  A    between atoms: _329  and  _330
REMARK  135  A    between atoms: _333  and  _335
REMARK  136  A    between atoms: _335  and  _336
REMARK  137  A    between atoms: _339  and  _341
REMARK  138  A    between atoms: _341  and  _342
REMARK  139  A    between atoms: _341  and  _344
REMARK  140  A    between atoms: _344  and  _345
REMARK  141  A    between atoms: _351  and  _353
REMARK  142  A    between atoms: _353  and  _354
REMARK  143  A    between atoms: _353  and  _356
REMARK  144  A    between atoms: _356  and  _357
REMARK  145  A    between atoms: _360  and  _362
REMARK  146  A    between atoms: _362  and  _363
REMARK  147  A    between atoms: _362  and  _365
REMARK  148  A    between atoms: _365  and  _366
REMARK  149  A    between atoms: _369  and  _371
REMARK  150  A    between atoms: _371  and  _372
REMARK  151  A    between atoms: _371  and  _374
REMARK  152  A    between atoms: _374  and  _375
REMARK  153  A    between atoms: _378  and  _380
REMARK  154  A    between atoms: _380  and  _381
REMARK  155  A    between atoms: _380  and  _383
REMARK  156  A    between atoms: _383  and  _384
REMARK  157  A    between atoms: _387  and  _389
REMARK  158  A    between atoms: _389  and  _390
REMARK  159  A    between atoms: _389  and  _392
REMARK  160  A    between atoms: _392  and  _393
REMARK  161  A    between atoms: _396  and  _398
REMARK  162  A    between atoms: _398  and  _399
REMARK  163  A    between atoms: _402  and  _404
REMARK  164  A    between atoms: _404  and  _405
REMARK  165  A    between atoms: _404  and  _407
REMARK  166  A    between atoms: _407  and  _408
REMARK  167  A    between atoms: _410  and  _412
REMARK  168  A    between atoms: _412  and  _413
REMARK  169  A    between atoms: _412  and  _415
REMARK  170  A    between atoms: _418  and  _420
REMARK  171  A    between atoms: _420  and  _421
REMARK  172  A    between atoms: _420  and  _423
REMARK  173  A    between atoms: _423  and  _424
REMARK  174  A    between atoms: _426  and  _428
REMARK  175  A    between atoms: _428  and  _429
REMARK  176  A    between atoms: _428  and  _431
REMARK  177  A    between atoms: _431  and  _432
REMARK  178  A    between atoms: _438  and  _440
REMARK  179  A    between atoms: _440  and  _441
REMARK  180  A    between atoms: _440  and  _443
REMARK  181  A    between atoms: _443  and  _444
REMARK  182  A    between atoms: _447  and  _449
REMARK  183  A    between atoms: _449  and  _450
REMARK  184  A    between atoms: _449  and  _452
REMARK  185  A    between atoms: _452  and  _453
REMARK  186  A    between atoms: _453  and  _454
REMARK  187  A    between atoms: _456  and  _458
REMARK  188  A    between atoms: _458  and  _459
REMARK  189  A    between atoms: _461  and  _463
REMARK  190  A    between atoms: _463  and  _464
REMARK  191  A    between atoms: _463  and  _466
REMARK  192  A    between atoms: _466  and  _467
REMARK  193  A    between atoms: _470  and  _472
REMARK  194  A    between atoms: _472  and  _473
REMARK  195  A    between atoms: _472  and  _475
REMARK  196  A    between atoms: _475  and  _476
REMARK  197  A    between atoms: _482  and  _484
REMARK  198  A    between atoms: _484  and  _485
REMARK  199  A    between atoms: _487  and  _489
REMARK  200  A    between atoms: _489  and  _490
REMARK  201  A    between atoms: _489  and  _492
REMARK  202  A    between atoms: _492  and  _493
REMARK  203  A    between atoms: _493  and  _494
REMARK  204  A    between atoms: _494  and  _495
REMARK  205  A    between atoms: _495  and  _496
REMARK  206  A    between atoms: _500  and  _502
REMARK  207  A    between atoms: _502  and  _503
REMARK  208  A    between atoms: _505  and  _507
REMARK  209  A    between atoms: _507  and  _508
REMARK  210  A    between atoms: _507  and  _510
REMARK  211  A    between atoms: _513  and  _515
REMARK  212  A    between atoms: _515  and  _516
REMARK  213  A    between atoms: _518  and  _520
REMARK  214  A    between atoms: _520  and  _521
REMARK  215  A    between atoms: _520  and  _523
REMARK  216  A    between atoms: _523  and  _524
REMARK                            x       y       z     vdW  Elec       q    Type
REMARK                         _______ _______ _______ _____ _____    ______ ____
ROOT
ATOM      1  C   SER A   5      13.145  -2.218  -3.567  0.00  0.00    +0.243 C 
ATOM      2  O   SER A   5      12.357  -1.504  -2.935  0.00  0.00    -0.273 OA
ATOM      3  N   HIS A   6      14.282  -1.745  -4.094  0.00  0.00    -0.297 N 
ATOM      4  H   HIS A   6      14.907  -2.393  -4.614  0.00  0.00    +0.150 HD
ENDROOT
BRANCH   3   5
ATOM      5  CA  HIS A   6      14.671  -0.329  -3.956  0.00  0.00    +0.155 C 
BRANCH   5   6
ATOM      6  C   HIS A   6      13.690   0.535  -4.740  0.00  0.00    +0.241 C 
ATOM      7  O   HIS A   6      13.230   1.562  -4.221  0.00  0.00    -0.273 OA
ATOM      8  N   GLU A   7      13.306   0.086  -5.955  0.00  0.00    -0.297 N 
ATOM      9  H   GLU A   7      13.738  -0.777  -6.342  0.00  0.00    +0.150 HD
BRANCH   8  10
ATOM     10  CA  GLU A   7      12.281   0.803  -6.744  0.00  0.00    +0.149 C 
BRANCH  10  11
ATOM     11  C   GLU A   7      10.945   0.751  -5.976  0.00  0.00    +0.241 C 
ATOM     12  N   ALA A   8      10.587  -0.434  -5.445  0.00  0.00    -0.297 N 
ATOM     13  H   ALA A   8      11.215  -1.257  -5.547  0.00  0.00    +0.150 HD
ATOM     14  O   GLU A   7      10.257   1.761  -5.848  0.00  0.00    -0.273 OA
BRANCH  12  15
ATOM     15  CA  ALA A   8       9.317  -0.572  -4.724  0.00  0.00    +0.149 C 
ATOM     16  CB  ALA A   8       9.123  -2.037  -4.318  0.00  0.00    +0.031 C 
BRANCH  15  17
ATOM     17  C   ALA A   8       9.285   0.321  -3.482  0.00  0.00    +0.241 C 
ATOM     18  N   PHE A   9      10.409   0.403  -2.758  0.00  0.00    -0.298 N 
ATOM     19  H   PHE A   9      11.249  -0.136  -3.051  0.00  0.00    +0.150 HD
ATOM     20  O   ALA A   8       8.260   0.945  -3.205  0.00  0.00    -0.273 OA
BRANCH  18  21
ATOM     21  CA  PHE A   9      10.470   1.239  -1.564  0.00  0.00    +0.141 C 
BRANCH  21  22
ATOM     22  C   PHE A   9      10.226   2.708  -1.979  0.00  0.00    +0.227 C 
ATOM     23  O   PHE A   9       9.426   3.394  -1.358  0.00  0.00    -0.286 OA
ENDBRANCH  21  22
BRANCH  21  24
ATOM     24  CB  PHE A   9      11.861   1.118  -0.895  0.00  0.00    +0.054 C 
BRANCH  24  25
ATOM     25  CG  PHE A   9      11.991   2.089   0.267  0.00  0.00    -0.020 A 
ATOM     26  CD2 PHE A   9      11.604   1.716   1.554  0.00  0.00    -0.004 A 
ATOM     27  CE2 PHE A   9      11.681   2.638   2.623  0.00  0.00    -0.000 A 
ATOM     28  CZ  PHE A   9      12.158   3.915   2.397  0.00  0.00    -0.000 A 
ATOM     29  CE1 PHE A   9      12.541   4.301   1.126  0.00  0.00    -0.000 A 
ATOM     30  CD1 PHE A   9      12.472   3.382   0.064  0.00  0.00    -0.004 A 
ENDBRANCH  24  25
ENDBRANCH  21  24
ENDBRANCH  18  21
ENDBRANCH  15  17
ENDBRANCH  12  15
ENDBRANCH  10  11
BRANCH  10  31
ATOM     31  CB  GLU A   7      12.118   0.098  -8.114  0.00  0.00    +0.041 C 
BRANCH  31  32
ATOM     32  CG  GLU A   7      11.039   0.779  -8.962  0.00  0.00    +0.116 C 
BRANCH  32  33
ATOM     33  CD  GLU A   7      10.662   0.063 -10.249  0.00  0.00    +0.365 C 
ATOM     34  OE2 GLU A   7      10.859  -1.168 -10.325  0.00  0.00    -0.246 OA
ATOM     35  OE1 GLU A   7      10.020   0.707 -11.113  0.00  0.00    -0.246 OA
ENDBRANCH  32  33
ENDBRANCH  31  32
ENDBRANCH  10  31
ENDBRANCH   8  10
ENDBRANCH   5   6
BRANCH   5  36
ATOM     36  CB  HIS A   6      16.124  -0.135  -4.411  0.00  0.00    +0.076 C 
BRANCH  36  37
ATOM     37  CG  HIS A   6      17.005  -1.133  -3.720  0.00  0.00    +0.082 A 
ATOM     38  ND1 HIS A   6      17.030  -1.237  -2.339  0.00  0.00    -0.227 NA
ATOM     39  CE1 HIS A   6      17.835  -2.262  -2.071  0.00  0.00    +0.199 A 
ATOM     40  NE2 HIS A   6      18.335  -2.793  -3.196  0.00  0.00    -0.221 NA
ATOM     41  CD2 HIS A   6      17.777  -2.104  -4.253  0.00  0.00    +0.115 A 
ENDBRANCH  36  37
ENDBRANCH   5  36
ENDBRANCH   3   5
BRANCH   1  42
ATOM     42  CA  SER A   5      12.819  -3.711  -3.800  0.00  0.00    +0.178 C 
BRANCH  42  44
ATOM     43  C   THR A   4      13.124  -3.696  -6.215  0.00  0.00    +0.243 C 
ATOM     44  N   SER A   5      13.482  -4.194  -5.019  0.00  0.00    -0.295 N 
ATOM     45  H   SER A   5      14.226  -4.919  -4.957  0.00  0.00    +0.150 HD
ATOM     46  O   THR A   4      12.229  -2.844  -6.362  0.00  0.00    -0.273 OA
BRANCH  43  47
ATOM     47  CA  THR A   4      13.975  -4.168  -7.380  0.00  0.00    +0.176 C 
BRANCH  47  49
ATOM     48  C   GLY A   3      12.987  -4.720  -9.548  0.00  0.00    +0.243 C 
ATOM     49  N   THR A   4      13.358  -3.790  -8.645  0.00  0.00    -0.295 N 
ATOM     50  H   THR A   4      13.201  -2.784  -8.855  0.00  0.00    +0.150 HD
ATOM     51  O   GLY A   3      13.064  -5.928  -9.323  0.00  0.00    -0.273 OA
BRANCH  48  52
ATOM     52  CA  GLY A   3      12.394  -4.211 -10.842  0.00  0.00    +0.176 C 
BRANCH  52  54
ATOM     53  C   ALA A   2      14.035  -2.619 -11.693  0.00  0.00    +0.241 C 
ATOM     54  N   GLY A   3      12.811  -2.874 -11.242  0.00  0.00    -0.295 N 
ATOM     55  H   GLY A   3      12.128  -2.093 -11.172  0.00  0.00    +0.150 HD
ATOM     56  O   ALA A   2      14.937  -3.461 -11.779  0.00  0.00    -0.273 OA
BRANCH  53  57
ATOM     57  CA  ALA A   2      14.269  -1.190 -12.179  0.00  0.00    +0.149 C 
ATOM     58  CB  ALA A   2      13.997  -1.111 -13.681  0.00  0.00    +0.031 C 
BRANCH  57  61
ATOM     59  C   GLN A   1      16.122  -0.648 -10.672  0.00  0.00    +0.238 C 
ATOM     60  O   GLN A   1      15.425  -0.875  -9.675  0.00  0.00    -0.274 OA
ATOM     61  N   ALA A   2      15.639  -0.751 -11.913  0.00  0.00    -0.297 N 
ATOM     62  H   ALA A   2      16.256  -0.512 -12.715  0.00  0.00    +0.150 HD
BRANCH  59  63
ATOM     63  CA  GLN A   1      17.620  -0.244 -10.548  0.00  0.00    +0.145 C 
BRANCH  63  64
ATOM     64  N   GLN A   1      17.727   0.814  -9.564  0.00  0.00    -0.238 NA
ATOM     65  H   GLN A   1      18.116   0.607  -8.622  0.00  0.00    +0.142 HD
ENDBRANCH  63  64
BRANCH  63  66
ATOM     66  CB  GLN A   1      18.446  -1.461 -10.108  0.00  0.00    +0.036 C 
BRANCH  66  67
ATOM     67  CG  GLN A   1      18.350  -2.588 -11.160  0.00  0.00    +0.087 C 
BRANCH  67  68
ATOM     68  CD  GLN A   1      19.028  -3.856 -10.722  0.00  0.00    +0.219 C 
ATOM     69  OE1 GLN A   1      19.645  -3.934  -9.640  0.00  0.00    -0.275 OA
ATOM     70  NE2 GLN A   1      18.980  -4.849 -11.609  0.00  0.00    -0.329 N 
ATOM     71 HE21 GLN A   1      19.472  -5.744 -11.415  0.00  0.00    +0.145 HD
ATOM     72 HE22 GLN A   1      18.450  -4.729 -12.496  0.00  0.00    +0.145 HD
ENDBRANCH  67  68
ENDBRANCH  66  67
ENDBRANCH  63  66
ENDBRANCH  59  63
ENDBRANCH  57  61
ENDBRANCH  53  57
ENDBRANCH  52  54
ENDBRANCH  48  52
ENDBRANCH  47  49
BRANCH  47  73
ATOM     73  CB  THR A   4      15.367  -3.524  -7.261  0.00  0.00    +0.137 C 
ATOM     74  CG2 THR A   4      16.324  -4.003  -8.352  0.00  0.00    +0.034 C 
BRANCH  73  75
ATOM     75  OG1 THR A   4      15.226  -2.083  -7.249  0.00  0.00    -0.382 OA
ATOM     76  HG1 THR A   4      14.794  -1.788  -8.089  0.00  0.00    +0.210 HD
ENDBRANCH  73  75
ENDBRANCH  47  73
ENDBRANCH  43  47
ENDBRANCH  42  44
BRANCH  42  77
ATOM     77  CB  SER A   5      13.302  -4.508  -2.595  0.00  0.00    +0.166 C 
BRANCH  77  78
ATOM     78  OG  SER A   5      12.882  -5.855  -2.737  0.00  0.00    -0.380 OA
ATOM     79  H   SER A   5      13.192  -6.380  -1.957  0.00  0.00    +0.211 HD
ENDBRANCH  77  78
ENDBRANCH  42  77
ENDBRANCH   1  42
TORSDOF 32
REMARK  Name = ../refined-set-2016/4pp0/4pp0_pocket.pdb
REMARK  216 active torsions:
REMARK  status: ('A' for Active; 'I' for Inactive)
REMARK    1  A    between atoms: _1  and  _3
REMARK    2  A    between atoms: _3  and  _4
REMARK    3  A    between atoms: _3  and  _6
REMARK    4  A    between atoms: _6  and  _7
REMARK    5  A    between atoms: _10  and  _12
REMARK    6  A    between atoms: _12  and  _13
REMARK    7  A    between atoms: _12  and  _15
REMARK    8  A    between atoms: _15  and  _16
REMARK    9  A    between atoms: _16  and  _17
REMARK   10  A    between atoms: _20  and  _22
REMARK   11  A    between atoms: _22  and  _23
REMARK   12  A    between atoms: _25  and  _27
REMARK   13  A    between atoms: _27  and  _28
REMARK   14  A    between atoms: _27  and  _30
REMARK   15  A    between atoms: _30  and  _31
REMARK   16  A    between atoms: _33  and  _35
REMARK   17  A    between atoms: _35  and  _36
REMARK   18  A    between atoms: _35  and  _38
REMARK   19  A    between atoms: _38  and  _39
REMARK   20  A    between atoms: _44  and  _45
REMARK   21  A    between atoms: _47  and  _49
REMARK   22  A    between atoms: _49  and  _50
REMARK   23  A    between atoms: _53  and  _55
REMARK   24  A    between atoms: _55  and  _56
REMARK   25  A    between atoms: _55  and  _58
REMARK   26  A    between atoms: _58  and  _59
REMARK   27  A    between atoms: _64  and  _65
REMARK   28  A    between atoms: _67  and  _69
REMARK   29  A    between atoms: _69  and  _70
REMARK   30  A    between atoms: _69  and  _72
REMARK   31  A    between atoms: _72  and  _73
REMARK   32  A    between atoms: _78  and  _80
REMARK   33  A    between atoms: _80  and  _81
REMARK   34  A    between atoms: _80  and  _83
REMARK   35  A    between atoms: _83  and  _84
REMARK   36  A    between atoms: _87  and  _89
REMARK   37  A    between atoms: _89  and  _90
REMARK   38  A    between atoms: _89  and  _92
REMARK   39  A    between atoms: _92  and  _93
REMARK   40  A    between atoms: _93  and  _94
REMARK   41  A    between atoms: _99  and  _101
REMARK   42  A    between atoms: _101  and  _102
REMARK   43  A    between atoms: _101  and  _104
REMARK   44  A    between atoms: _104  and  _105
REMARK   45  A    between atoms: _115  and  _117
REMARK   46  A    between atoms: _117  and  _118
REMARK   47  A    between atoms: _117  and  _120
REMARK   48  A    between atoms: _120  and  _121
REMARK   49  A    between atoms: _124  and  _126
REMARK   50  A    between atoms: _126  and  _127
REMARK   51  A    between atoms: _126  and  _129
REMARK   52  A    between atoms: _129  and  _130
REMARK   53  A    between atoms: _133  and  _135
REMARK   54  A    between atoms: _135  and  _136
REMARK   55  A    between atoms: _135  and  _138
REMARK   56  A    between atoms: _138  and  _139
REMARK   57  A    between atoms: _139  and  _140
REMARK   58  A    between atoms: _142  and  _144
REMARK   59  A    between atoms: _144  and  _145
REMARK   60  A    between atoms: _148  and  _150
REMARK   61  A    between atoms: _150  and  _151
REMARK   62  A    between atoms: _154  and  _156
REMARK   63  A    between atoms: _156  and  _157
REMARK   64  A    between atoms: _156  and  _159
REMARK   65  A    between atoms: _159  and  _160
REMARK   66  A    between atoms: _160  and  _161
REMARK   67  A    between atoms: _163  and  _165
REMARK   68  A    between atoms: _165  and  _166
REMARK   69  A    between atoms: _168  and  _170
REMARK   70  A    between atoms: _170  and  _171
REMARK   71  A    between atoms: _170  and  _173
REMARK   72  A    between atoms: _173  and  _174
REMARK   73  A    between atoms: _177  and  _179
REMARK   74  A    between atoms: _179  and  _180
REMARK   75  A    between atoms: _179  and  _182
REMARK   76  A    between atoms: _182  and  _183
REMARK   77  A    between atoms: _183  and  _184
REMARK   78  A    between atoms: _189  and  _191
REMARK   79  A    between atoms: _191  and  _192
REMARK   80  A    between atoms: _191  and  _194
REMARK   81  A    between atoms: _194  and  _195
REMARK   82  A    between atoms: _195  and  _196
REMARK   83  A    between atoms: _196  and  _197
REMARK   84  A    between atoms: _206  and  _208
REMARK   85  A    between atoms: _208  and  _209
REMARK   86  A    between atoms: _208  and  _211
REMARK   87  A    between atoms: _211  and  _212
REMARK   88  A    between atoms: _218  and  _220
REMARK   89  A    between atoms: _220  and  _221
REMARK   90  A    between atoms: _220  and  _223
REMARK   91  A    between atoms: _223  and  _224
REMARK   92  A    between atoms: _227  and  _229
REMARK   93  A    between atoms: _229  and  _230
REMARK   94  A    between atoms: _229  and  _232
REMARK   95  A    between atoms: _232  and  _233
REMARK   96  A    between atoms: _236  and  _238
REMARK   97  A    between atoms: _238  and  _239
REMARK   98  A    between atoms: _238  and  _241
REMARK   99  A    between atoms: _241  and  _242
REMARK  100  A    between atoms: _246  and  _247
REMARK  101  A    between atoms: _252  and  _254
REMARK  102  A    between atoms: _254  and  _255
REMARK  103  A    between atoms: _254  and  _257
REMARK  104  A    between atoms: _257  and  _258
REMARK  105  A    between atoms: _263  and  _265
REMARK  106  A    between atoms: _265  and  _266
REMARK  107  A    between atoms: _265  and  _268
REMARK  108  A    between atoms: _268  and  _269
REMARK  109  A    between atoms: _272  and  _274
REMARK  110  A    between atoms: _274  and  _275
REMARK  111  A    between atoms: _274  and  _277
REMARK  112  A    between atoms: _277  and  _278
REMARK  113  A    between atoms: _278  and  _279
REMARK  114  A    between atoms: _284  and  _286
REMARK  115  A    between atoms: _286  and  _287
REMARK  116  A    between atoms: _290  and  _292
REMARK  117  A    between atoms: _292  and  _293
REMARK  118  A    between atoms: _295  and  _297
REMARK  119  A    between atoms: _297  and  _298
REMARK  120  A    between atoms: _297  and  _300
REMARK  121  A    between atoms: _300  and  _301
REMARK  122  A    between atoms: _304  and  _306
REMARK  123  A    between atoms: _306  and  _307
REMARK  124  A    between atoms: _306  and  _309
REMARK  125  A    between atoms: _309  and  _310
REMARK  126  A    between atoms: _312  and  _314
REMARK  127  A    between atoms: _314  and  _315
REMARK  128  A    between atoms: _314  and  _317
REMARK  129  A    between atoms: _317  and  _318
REMARK  130  A    between atoms: _323  and  _325
REMARK  131  A    between atoms: _325  and  _326
REMARK  132  A    between atoms: _325  and  _328
REMARK  133  A    between atoms: _328  and  _329
REMARK  134  A    between atoms: _329  and  _330
REMARK  135  A    between atoms: _333  and  _335
REMARK  136  A    between atoms: _335  and  _336
REMARK  137  A    between atoms: _339  and  _341
REMARK  138  A    between atoms: _341  and  _342
REMARK  139  A    between atoms: _341  and  _344
REMARK  140  A    between atoms: _344  and  _345
REMARK  141  A    between atoms: _351  and  _353
REMARK  142  A    between atoms: _353  and  _354
REMARK  143  A    between atoms: _353  and  _356
REMARK  144  A    between atoms: _356  and  _357
REMARK  145  A    between atoms: _360  and  _362
REMARK  146  A    between atoms: _362  and  _363
REMARK  147  A    between atoms: _362  and  _365
REMARK  148  A    between atoms: _365  and  _366
REMARK  149  A    between atoms: _369  and  _371
REMARK  150  A    between atoms: _371  and  _372
REMARK  151  A    between atoms: _371  and  _374
REMARK  152  A    between atoms: _374  and  _375
REMARK  153  A    between atoms: _378  and  _380
REMARK  154  A    between atoms: _380  and  _381
REMARK  155  A    between atoms: _380  and  _383
REMARK  156  A    between atoms: _383  and  _384
REMARK  157  A    between atoms: _387  and  _389
REMARK  158  A    between atoms: _389  and  _390
REMARK  159  A    between atoms: _389  and  _392
REMARK  160  A    between atoms: _392  and  _393
REMARK  161  A    between atoms: _396  and  _398
REMARK  162  A    between atoms: _398  and  _399
REMARK  163  A    between atoms: _402  and  _404
REMARK  164  A    between atoms: _404  and  _405
REMARK  165  A    between atoms: _404  and  _407
REMARK  166  A    between atoms: _407  and  _408
REMARK  167  A    between atoms: _410  and  _412
REMARK  168  A    between atoms: _412  and  _413
REMARK  169  A    between atoms: _412  and  _415
REMARK  170  A    between atoms: _418  and  _420
REMARK  171  A    between atoms: _420  and  _421
REMARK  172  A    between atoms: _420  and  _423
REMARK  173  A    between atoms: _423  and  _424
REMARK  174  A    between atoms: _426  and  _428
REMARK  175  A    between atoms: _428  and  _429
REMARK  176  A    between atoms: _428  and  _431
REMARK  177  A    between atoms: _431  and  _432
REMARK  178  A    between atoms: _438  and  _440
REMARK  179  A    between atoms: _440  and  _441
REMARK  180  A    between atoms: _440  and  _443
REMARK  181  A    between atoms: _443  and  _444
REMARK  182  A    between atoms: _447  and  _449
REMARK  183  A    between atoms: _449  and  _450
REMARK  184  A    between atoms: _449  and  _452
REMARK  185  A    between atoms: _452  and  _453
REMARK  186  A    between atoms: _453  and  _454
REMARK  187  A    between atoms: _456  and  _458
REMARK  188  A    between atoms: _458  and  _459
REMARK  189  A    between atoms: _461  and  _463
REMARK  190  A    between atoms: _463  and  _464
REMARK  191  A    between atoms: _463  and  _466
REMARK  192  A    between atoms: _466  and  _467
REMARK  193  A    between atoms: _470  and  _472
REMARK  194  A    between atoms: _472  and  _473
REMARK  195  A    between atoms: _472  and  _475
REMARK  196  A    between atoms: _475  and  _476
REMARK  197  A    between atoms: _482  and  _484
REMARK  198  A    between atoms: _484  and  _485
REMARK  199  A    between atoms: _487  and  _489
REMARK  200  A    between atoms: _489  and  _490
REMARK  201  A    between atoms: _489  and  _492
REMARK  202  A    between atoms: _492  and  _493
REMARK  203  A    between atoms: _493  and  _494
REMARK  204  A    between atoms: _494  and  _495
REMARK  205  A    between atoms: _495  and  _496
REMARK  206  A    between atoms: _500  and  _502
REMARK  207  A    between atoms: _502  and  _503
REMARK  208  A    between atoms: _505  and  _507
REMARK  209  A    between atoms: _507  and  _508
REMARK  210  A    between atoms: _507  and  _510
REMARK  211  A    between atoms: _513  and  _515
REMARK  212  A    between atoms: _515  and  _516
REMARK  213  A    between atoms: _518  and  _520
REMARK  214  A    between atoms: _520  and  _521
REMARK  215  A    between atoms: _520  and  _523
REMARK  216  A    between atoms: _523  and  _524
REMARK                            x       y       z     vdW  Elec       q    Type
REMARK                         _______ _______ _______ _____ _____    ______ ____
ROOT
ATOM      1  C   THR A   2      21.858  -1.030 -13.241  0.00  0.00    +0.243 C 
ATOM      2  N   ILE A   3      22.352  -1.539 -12.100  0.00  0.00    -0.297 N 
ATOM      3  H   ILE A   3      22.341  -2.567 -11.943  0.00  0.00    +0.150 HD
ATOM      4  O   THR A   2      21.831   0.183 -13.484  0.00  0.00    -0.273 OA
ENDROOT
BRANCH   2   5
ATOM      5  CA  ILE A   3      22.907  -0.647 -11.075  0.00  0.00    +0.149 C 
BRANCH   5   6
ATOM      6  C   ILE A   3      24.160   0.081 -11.611  0.00  0.00    +0.241 C 
ATOM      7  O   ILE A   3      24.469   1.178 -11.171  0.00  0.00    -0.273 OA
ATOM      8  N   ASP A   4      24.882  -0.542 -12.565  0.00  0.00    -0.298 N 
ATOM      9  H   ASP A   4      24.588  -1.482 -12.900  0.00  0.00    +0.150 HD
BRANCH   8  10
ATOM     10  CA  ASP A   4      26.063   0.082 -13.129  0.00  0.00    +0.148 C 
BRANCH  10  11
ATOM     11  C   ASP A   4      25.709   1.407 -13.807  0.00  0.00    +0.227 C 
ATOM     12  O   ASP A   4      26.423   2.392 -13.632  0.00  0.00    -0.286 OA
ENDBRANCH  10  11
BRANCH  10  13
ATOM     13  CB  ASP A   4      26.791  -0.910 -14.054  0.00  0.00    +0.142 C 
BRANCH  13  14
ATOM     14  CG  ASP A   4      27.370  -2.126 -13.302  0.00  0.00    +0.367 C 
ATOM     15  OD2 ASP A   4      27.528  -2.041 -12.059  0.00  0.00    -0.246 OA
ATOM     16  OD1 ASP A   4      27.670  -3.156 -13.964  0.00  0.00    -0.246 OA
ENDBRANCH  13  14
ENDBRANCH  10  13
ENDBRANCH   8  10
ENDBRANCH   5   6
BRANCH   5  17
ATOM     17  CB  ILE A   3      23.211  -1.440  -9.770  0.00  0.00    +0.027 C 
ATOM     18  CG2 ILE A   3      24.512  -2.267  -9.908  0.00  0.00    +0.002 C 
BRANCH  17  19
ATOM     19  CG1 ILE A   3      23.321  -0.485  -8.568  0.00  0.00    +0.002 C 
ATOM     20  CD1 ILE A   3      21.975   0.195  -8.133  0.00  0.00    +0.000 C 
ENDBRANCH  17  19
ENDBRANCH   5  17
ENDBRANCH   2   5
BRANCH   1  21
ATOM     21  CA  THR A   2      21.395  -2.030 -14.285  0.00  0.00    +0.176 C 
BRANCH  21  24
ATOM     22  C   ASP A   1      19.244  -2.103 -15.483  0.00  0.00    +0.239 C 
ATOM     23  O   ASP A   1      18.945  -3.194 -14.984  0.00  0.00    -0.274 OA
ATOM     24  N   THR A   2      20.399  -1.454 -15.202  0.00  0.00    -0.295 N 
ATOM     25  H   THR A   2      20.585  -0.531 -15.643  0.00  0.00    +0.150 HD
BRANCH  22  26
ATOM     26  CA  ASP A   1      18.271  -1.411 -16.471  0.00  0.00    +0.156 C 
BRANCH  26  27
ATOM     27  N   ASP A   1      18.127   0.015 -16.181  0.00  0.00    -0.238 NA
ATOM     28  H   ASP A   1      18.397   0.721 -16.895  0.00  0.00    +0.142 HD
ENDBRANCH  26  27
BRANCH  26  29
ATOM     29  CB  ASP A   1      18.757  -1.617 -17.912  0.00  0.00    +0.140 C 
BRANCH  29  30
ATOM     30  CG  ASP A   1      20.042  -0.891 -18.337  0.00  0.00    +0.367 C 
ATOM     31  OD2 ASP A   1      20.524   0.003 -17.575  0.00  0.00    -0.246 OA
ATOM     32  OD1 ASP A   1      20.555  -1.186 -19.455  0.00  0.00    -0.246 OA
ENDBRANCH  29  30
ENDBRANCH  26  29
ENDBRANCH  22  26
ENDBRANCH  21  24
BRANCH  21  33
ATOM     33  CB  THR A   2      22.624  -2.509 -15.060  0.00  0.00    +0.137 C 
ATOM     34  CG2 THR A   2      22.285  -3.525 -16.183  0.00  0.00    +0.034 C 
BRANCH  33  35
ATOM     35  OG1 THR A   2      23.339  -1.373 -15.591  0.00  0.00    -0.382 OA
ATOM     36  HG1 THR A   2      24.133  -1.689 -16.091  0.00  0.00    +0.210 HD
ENDBRANCH  33  35
ENDBRANCH  21  33
ENDBRANCH   1  21
TORSDOF 16
REMARK  Name = ../refined-set-2016/4pp0/4pp0_pocket.pdb
REMARK  216 active torsions:
REMARK  status: ('A' for Active; 'I' for Inactive)
REMARK    1  A    between atoms: _1  and  _3
REMARK    2  A    between atoms: _3  and  _4
REMARK    3  A    between atoms: _3  and  _6
REMARK    4  A    between atoms: _6  and  _7
REMARK    5  A    between atoms: _10  and  _12
REMARK    6  A    between atoms: _12  and  _13
REMARK    7  A    between atoms: _12  and  _15
REMARK    8  A    between atoms: _15  and  _16
REMARK    9  A    between atoms: _16  and  _17
REMARK   10  A    between atoms: _20  and  _22
REMARK   11  A    between atoms: _22  and  _23
REMARK   12  A    between atoms: _25  and  _27
REMARK   13  A    between atoms: _27  and  _28
REMARK   14  A    between atoms: _27  and  _30
REMARK   15  A    between atoms: _30  and  _31
REMARK   16  A    between atoms: _33  and  _35
REMARK   17  A    between atoms: _35  and  _36
REMARK   18  A    between atoms: _35  and  _38
REMARK   19  A    between atoms: _38  and  _39
REMARK   20  A    between atoms: _44  and  _45
REMARK   21  A    between atoms: _47  and  _49
REMARK   22  A    between atoms: _49  and  _50
REMARK   23  A    between atoms: _53  and  _55
REMARK   24  A    between atoms: _55  and  _56
REMARK   25  A    between atoms: _55  and  _58
REMARK   26  A    between atoms: _58  and  _59
REMARK   27  A    between atoms: _64  and  _65
REMARK   28  A    between atoms: _67  and  _69
REMARK   29  A    between atoms: _69  and  _70
REMARK   30  A    between atoms: _69  and  _72
REMARK   31  A    between atoms: _72  and  _73
REMARK   32  A    between atoms: _78  and  _80
REMARK   33  A    between atoms: _80  and  _81
REMARK   34  A    between atoms: _80  and  _83
REMARK   35  A    between atoms: _83  and  _84
REMARK   36  A    between atoms: _87  and  _89
REMARK   37  A    between atoms: _89  and  _90
REMARK   38  A    between atoms: _89  and  _92
REMARK   39  A    between atoms: _92  and  _93
REMARK   40  A    between atoms: _93  and  _94
REMARK   41  A    between atoms: _99  and  _101
REMARK   42  A    between atoms: _101  and  _102
REMARK   43  A    between atoms: _101  and  _104
REMARK   44  A    between atoms: _104  and  _105
REMARK   45  A    between atoms: _115  and  _117
REMARK   46  A    between atoms: _117  and  _118
REMARK   47  A    between atoms: _117  and  _120
REMARK   48  A    between atoms: _120  and  _121
REMARK   49  A    between atoms: _124  and  _126
REMARK   50  A    between atoms: _126  and  _127
REMARK   51  A    between atoms: _126  and  _129
REMARK   52  A    between atoms: _129  and  _130
REMARK   53  A    between atoms: _133  and  _135
REMARK   54  A    between atoms: _135  and  _136
REMARK   55  A    between atoms: _135  and  _138
REMARK   56  A    between atoms: _138  and  _139
REMARK   57  A    between atoms: _139  and  _140
REMARK   58  A    between atoms: _142  and  _144
REMARK   59  A    between atoms: _144  and  _145
REMARK   60  A    between atoms: _148  and  _150
REMARK   61  A    between atoms: _150  and  _151
REMARK   62  A    between atoms: _154  and  _156
REMARK   63  A    between atoms: _156  and  _157
REMARK   64  A    between atoms: _156  and  _159
REMARK   65  A    between atoms: _159  and  _160
REMARK   66  A    between atoms: _160  and  _161
REMARK   67  A    between atoms: _163  and  _165
REMARK   68  A    between atoms: _165  and  _166
REMARK   69  A    between atoms: _168  and  _170
REMARK   70  A    between atoms: _170  and  _171
REMARK   71  A    between atoms: _170  and  _173
REMARK   72  A    between atoms: _173  and  _174
REMARK   73  A    between atoms: _177  and  _179
REMARK   74  A    between atoms: _179  and  _180
REMARK   75  A    between atoms: _179  and  _182
REMARK   76  A    between atoms: _182  and  _183
REMARK   77  A    between atoms: _183  and  _184
REMARK   78  A    between atoms: _189  and  _191
REMARK   79  A    between atoms: _191  and  _192
REMARK   80  A    between atoms: _191  and  _194
REMARK   81  A    between atoms: _194  and  _195
REMARK   82  A    between atoms: _195  and  _196
REMARK   83  A    between atoms: _196  and  _197
REMARK   84  A    between atoms: _206  and  _208
REMARK   85  A    between atoms: _208  and  _209
REMARK   86  A    between atoms: _208  and  _211
REMARK   87  A    between atoms: _211  and  _212
REMARK   88  A    between atoms: _218  and  _220
REMARK   89  A    between atoms: _220  and  _221
REMARK   90  A    between atoms: _220  and  _223
REMARK   91  A    between atoms: _223  and  _224
REMARK   92  A    between atoms: _227  and  _229
REMARK   93  A    between atoms: _229  and  _230
REMARK   94  A    between atoms: _229  and  _232
REMARK   95  A    between atoms: _232  and  _233
REMARK   96  A    between atoms: _236  and  _238
REMARK   97  A    between atoms: _238  and  _239
REMARK   98  A    between atoms: _238  and  _241
REMARK   99  A    between atoms: _241  and  _242
REMARK  100  A    between atoms: _246  and  _247
REMARK  101  A    between atoms: _252  and  _254
REMARK  102  A    between atoms: _254  and  _255
REMARK  103  A    between atoms: _254  and  _257
REMARK  104  A    between atoms: _257  and  _258
REMARK  105  A    between atoms: _263  and  _265
REMARK  106  A    between atoms: _265  and  _266
REMARK  107  A    between atoms: _265  and  _268
REMARK  108  A    between atoms: _268  and  _269
REMARK  109  A    between atoms: _272  and  _274
REMARK  110  A    between atoms: _274  and  _275
REMARK  111  A    between atoms: _274  and  _277
REMARK  112  A    between atoms: _277  and  _278
REMARK  113  A    between atoms: _278  and  _279
REMARK  114  A    between atoms: _284  and  _286
REMARK  115  A    between atoms: _286  and  _287
REMARK  116  A    between atoms: _290  and  _292
REMARK  117  A    between atoms: _292  and  _293
REMARK  118  A    between atoms: _295  and  _297
REMARK  119  A    between atoms: _297  and  _298
REMARK  120  A    between atoms: _297  and  _300
REMARK  121  A    between atoms: _300  and  _301
REMARK  122  A    between atoms: _304  and  _306
REMARK  123  A    between atoms: _306  and  _307
REMARK  124  A    between atoms: _306  and  _309
REMARK  125  A    between atoms: _309  and  _310
REMARK  126  A    between atoms: _312  and  _314
REMARK  127  A    between atoms: _314  and  _315
REMARK  128  A    between atoms: _314  and  _317
REMARK  129  A    between atoms: _317  and  _318
REMARK  130  A    between atoms: _323  and  _325
REMARK  131  A    between atoms: _325  and  _326
REMARK  132  A    between atoms: _325  and  _328
REMARK  133  A    between atoms: _328  and  _329
REMARK  134  A    between atoms: _329  and  _330
REMARK  135  A    between atoms: _333  and  _335
REMARK  136  A    between atoms: _335  and  _336
REMARK  137  A    between atoms: _339  and  _341
REMARK  138  A    between atoms: _341  and  _342
REMARK  139  A    between atoms: _341  and  _344
REMARK  140  A    between atoms: _344  and  _345
REMARK  141  A    between atoms: _351  and  _353
REMARK  142  A    between atoms: _353  and  _354
REMARK  143  A    between atoms: _353  and  _356
REMARK  144  A    between atoms: _356  and  _357
REMARK  145  A    between atoms: _360  and  _362
REMARK  146  A    between atoms: _362  and  _363
REMARK  147  A    between atoms: _362  and  _365
REMARK  148  A    between atoms: _365  and  _366
REMARK  149  A    between atoms: _369  and  _371
REMARK  150  A    between atoms: _371  and  _372
REMARK  151  A    between atoms: _371  and  _374
REMARK  152  A    between atoms: _374  and  _375
REMARK  153  A    between atoms: _378  and  _380
REMARK  154  A    between atoms: _380  and  _381
REMARK  155  A    between atoms: _380  and  _383
REMARK  156  A    between atoms: _383  and  _384
REMARK  157  A    between atoms: _387  and  _389
REMARK  158  A    between atoms: _389  and  _390
REMARK  159  A    between atoms: _389  and  _392
REMARK  160  A    between atoms: _392  and  _393
REMARK  161  A    between atoms: _396  and  _398
REMARK  162  A    between atoms: _398  and  _399
REMARK  163  A    between atoms: _402  and  _404
REMARK  164  A    between atoms: _404  and  _405
REMARK  165  A    between atoms: _404  and  _407
REMARK  166  A    between atoms: _407  and  _408
REMARK  167  A    between atoms: _410  and  _412
REMARK  168  A    between atoms: _412  and  _413
REMARK  169  A    between atoms: _412  and  _415
REMARK  170  A    between atoms: _418  and  _420
REMARK  171  A    between atoms: _420  and  _421
REMARK  172  A    between atoms: _420  and  _423
REMARK  173  A    between atoms: _423  and  _424
REMARK  174  A    between atoms: _426  and  _428
REMARK  175  A    between atoms: _428  and  _429
REMARK  176  A    between atoms: _428  and  _431
REMARK  177  A    between atoms: _431  and  _432
REMARK  178  A    between atoms: _438  and  _440
REMARK  179  A    between atoms: _440  and  _441
REMARK  180  A    between atoms: _440  and  _443
REMARK  181  A    between atoms: _443  and  _444
REMARK  182  A    between atoms: _447  and  _449
REMARK  183  A    between atoms: _449  and  _450
REMARK  184  A    between atoms: _449  and  _452
REMARK  185  A    between atoms: _452  and  _453
REMARK  186  A    between atoms: _453  and  _454
REMARK  187  A    between atoms: _456  and  _458
REMARK  188  A    between atoms: _458  and  _459
REMARK  189  A    between atoms: _461  and  _463
REMARK  190  A    between atoms: _463  and  _464
REMARK  191  A    between atoms: _463  and  _466
REMARK  192  A    between atoms: _466  and  _467
REMARK  193  A    between atoms: _470  and  _472
REMARK  194  A    between atoms: _472  and  _473
REMARK  195  A    between atoms: _472  and  _475
REMARK  196  A    between atoms: _475  and  _476
REMARK  197  A    between atoms: _482  and  _484
REMARK  198  A    between atoms: _484  and  _485
REMARK  199  A    between atoms: _487  and  _489
REMARK  200  A    between atoms: _489  and  _490
REMARK  201  A    between atoms: _489  and  _492
REMARK  202  A    between atoms: _492  and  _493
REMARK  203  A    between atoms: _493  and  _494
REMARK  204  A    between atoms: _494  and  _495
REMARK  205  A    between atoms: _495  and  _496
REMARK  206  A    between atoms: _500  and  _502
REMARK  207  A    between atoms: _502  and  _503
REMARK  208  A    between atoms: _505  and  _507
REMARK  209  A    between atoms: _507  and  _508
REMARK  210  A    between atoms: _507  and  _510
REMARK  211  A    between atoms: _513  and  _515
REMARK  212  A    between atoms: _515  and  _516
REMARK  213  A    between atoms: _518  and  _520
REMARK  214  A    between atoms: _520  and  _521
REMARK  215  A    between atoms: _520  and  _523
REMARK  216  A    between atoms: _523  and  _524
REMARK                            x       y       z     vdW  Elec       q    Type
REMARK                         _______ _______ _______ _____ _____    ______ ____
ROOT
ATOM      1  C   VAL A   4      25.579  -3.160   1.676  0.00  0.00    +0.241 C 
ATOM      2  N   SER A   5      25.135  -4.422   1.460  0.00  0.00    -0.295 N 
ATOM      3  H   SER A   5      24.158  -4.680   1.706  0.00  0.00    +0.150 HD
ATOM      4  O   VAL A   4      26.729  -2.813   1.422  0.00  0.00    -0.273 OA
ENDROOT
BRANCH   2   5
ATOM      5  CA  SER A   5      26.040  -5.427   0.876  0.00  0.00    +0.178 C 
BRANCH   5   6
ATOM      6  C   SER A   5      26.563  -4.992  -0.508  0.00  0.00    +0.243 C 
ATOM      7  O   SER A   5      27.689  -5.348  -0.865  0.00  0.00    -0.273 OA
ATOM      8  N   PHE A   6      25.768  -4.218  -1.271  0.00  0.00    -0.297 N 
ATOM      9  H   PHE A   6      24.807  -3.990  -0.944  0.00  0.00    +0.150 HD
BRANCH   8  10
ATOM     10  CA  PHE A   6      26.240  -3.692  -2.558  0.00  0.00    +0.153 C 
BRANCH  10  11
ATOM     11  C   PHE A   6      27.043  -2.386  -2.329  0.00  0.00    +0.241 C 
ATOM     12  N   LEU A   7      26.482  -1.486  -1.514  0.00  0.00    -0.298 N 
ATOM     13  H   LEU A   7      25.621  -1.742  -0.991  0.00  0.00    +0.150 HD
ATOM     14  O   PHE A   6      28.118  -2.180  -2.911  0.00  0.00    -0.273 OA
BRANCH  12  15
ATOM     15  CA  LEU A   7      27.054  -0.145  -1.341  0.00  0.00    +0.137 C 
BRANCH  15  16
ATOM     16  C   LEU A   7      28.358  -0.071  -0.552  0.00  0.00    +0.227 C 
ATOM     17  O   LEU A   7      29.169   0.827  -0.819  0.00  0.00    -0.286 OA
ENDBRANCH  15  16
BRANCH  15  18
ATOM     18  CB  LEU A   7      26.013   0.806  -0.729  0.00  0.00    +0.028 C 
BRANCH  18  19
ATOM     19  CG  LEU A   7      24.773   1.036  -1.566  0.00  0.00    +0.002 C 
ATOM     20  CD2 LEU A   7      23.759   1.846  -0.747  0.00  0.00    +0.000 C 
ATOM     21  CD1 LEU A   7      25.133   1.796  -2.882  0.00  0.00    +0.000 C 
ENDBRANCH  18  19
ENDBRANCH  15  18
ENDBRANCH  12  15
ENDBRANCH  10  11
BRANCH  10  22
ATOM     22  CB  PHE A   6      25.032  -3.397  -3.485  0.00  0.00    +0.055 C 
BRANCH  22  23
ATOM     23  CG  PHE A   6      25.458  -2.676  -4.742  0.00  0.00    -0.020 A 
ATOM     24  CD2 PHE A   6      25.322  -1.287  -4.852  0.00  0.00    -0.004 A 
ATOM     25  CE2 PHE A   6      25.768  -0.610  -6.003  0.00  0.00    -0.000 A 
ATOM     26  CZ  PHE A   6      26.353  -1.323  -7.039  0.00  0.00    -0.000 A 
ATOM     27  CE1 PHE A   6      26.484  -2.705  -6.949  0.00  0.00    -0.000 A 
ATOM     28  CD1 PHE A   6      26.042  -3.377  -5.802  0.00  0.00    -0.004 A 
ENDBRANCH  22  23
ENDBRANCH  10  22
ENDBRANCH   8  10
ENDBRANCH   5   6
BRANCH   5  29
ATOM     29  CB  SER A   5      25.396  -6.809   0.836  0.00  0.00    +0.166 C 
BRANCH  29  30
ATOM     30  OG  SER A   5      24.192  -6.774   0.079  0.00  0.00    -0.380 OA
ATOM     31  H   SER A   5      23.787  -7.677   0.063  0.00  0.00    +0.211 HD
ENDBRANCH  29  30
ENDBRANCH   5  29
ENDBRANCH   2   5
BRANCH   1  32
ATOM     32  CA  VAL A   4      24.599  -2.143   2.280  0.00  0.00    +0.149 C 
BRANCH  32  34
ATOM     33  C   SER A   3      23.037  -2.312   0.415  0.00  0.00    +0.243 C 
ATOM     34  N   VAL A   4      23.272  -2.412   1.732  0.00  0.00    -0.297 N 
ATOM     35  H   VAL A   4      22.499  -2.685   2.372  0.00  0.00    +0.150 HD
ATOM     36  O   SER A   3      23.895  -1.891  -0.393  0.00  0.00    -0.273 OA
BRANCH  33  37
ATOM     37  CA  SER A   3      21.660  -2.767  -0.068  0.00  0.00    +0.178 C 
BRANCH  37  40
ATOM     38  C   ALA A   2      20.939  -0.841  -1.283  0.00  0.00    +0.241 C 
ATOM     39  O   ALA A   2      20.846  -0.223  -0.209  0.00  0.00    -0.273 OA
ATOM     40  N   SER A   3      21.296  -2.134  -1.316  0.00  0.00    -0.295 N 
ATOM     41  H   SER A   3      21.310  -2.664  -2.211  0.00  0.00    +0.150 HD
BRANCH  38  42
ATOM     42  CA  ALA A   2      20.555  -0.174  -2.601  0.00  0.00    +0.149 C 
ATOM     43  CB  ALA A   2      21.684  -0.283  -3.633  0.00  0.00    +0.031 C 
BRANCH  42  45
ATOM     44  C   LEU A   1      19.513   1.970  -3.189  0.00  0.00    +0.238 C 
ATOM     45  N   ALA A   2      20.223   1.226  -2.317  0.00  0.00    -0.297 N 
ATOM     46  H   ALA A   2      20.542   1.654  -1.424  0.00  0.00    +0.150 HD
ATOM     47  O   LEU A   1      19.145   1.562  -4.301  0.00  0.00    -0.274 OA
BRANCH  44  48
ATOM     48  CA  LEU A   1      19.142   3.371  -2.730  0.00  0.00    +0.145 C 
BRANCH  48  49
ATOM     49  N   LEU A   1      19.497   4.260  -3.831  0.00  0.00    -0.238 NA
ATOM     50  H   LEU A   1      19.380   3.900  -4.800  0.00  0.00    +0.142 HD
ENDBRANCH  48  49
BRANCH  48  51
ATOM     51  CB  LEU A   1      17.631   3.462  -2.482  0.00  0.00    +0.026 C 
BRANCH  51  52
ATOM     52  CG  LEU A   1      17.010   2.382  -1.587  0.00  0.00    +0.002 C 
ATOM     53  CD2 LEU A   1      17.547   2.439  -0.152  0.00  0.00    +0.000 C 
ATOM     54  CD1 LEU A   1      15.456   2.536  -1.532  0.00  0.00    +0.000 C 
ENDBRANCH  51  52
ENDBRANCH  48  51
ENDBRANCH  44  48
ENDBRANCH  42  45
ENDBRANCH  38  42
ENDBRANCH  37  40
BRANCH  37  55
ATOM     55  CB  SER A   3      21.698  -4.284  -0.231  0.00  0.00    +0.166 C 
BRANCH  55  56
ATOM     56  OG  SER A   3      22.782  -4.641  -1.078  0.00  0.00    -0.380 OA
ATOM     57  H   SER A   3      22.807  -5.625  -1.184  0.00  0.00    +0.211 HD
ENDBRANCH  55  56
ENDBRANCH  37  55
ENDBRANCH  33  37
ENDBRANCH  32  34
BRANCH  32  58
ATOM     58  CB  VAL A   4      24.544  -2.248   3.827  0.00  0.00    +0.027 C 
ATOM     59  CG2 VAL A   4      25.953  -2.281   4.442  0.00  0.00    +0.002 C 
ATOM     60  CG1 VAL A   4      23.738  -1.076   4.389  0.00  0.00    +0.002 C 
ENDBRANCH  32  58
ENDBRANCH   1  32
TORSDOF 25
REMARK  Name = ../refined-set-2016/4pp0/4pp0_pocket.pdb
REMARK  216 active torsions:
REMARK  status: ('A' for Active; 'I' for Inactive)
REMARK    1  A    between atoms: _1  and  _3
REMARK    2  A    between atoms: _3  and  _4
REMARK    3  A    between atoms: _3  and  _6
REMARK    4  A    between atoms: _6  and  _7
REMARK    5  A    between atoms: _10  and  _12
REMARK    6  A    between atoms: _12  and  _13
REMARK    7  A    between atoms: _12  and  _15
REMARK    8  A    between atoms: _15  and  _16
REMARK    9  A    between atoms: _16  and  _17
REMARK   10  A    between atoms: _20  and  _22
REMARK   11  A    between atoms: _22  and  _23
REMARK   12  A    between atoms: _25  and  _27
REMARK   13  A    between atoms: _27  and  _28
REMARK   14  A    between atoms: _27  and  _30
REMARK   15  A    between atoms: _30  and  _31
REMARK   16  A    between atoms: _33  and  _35
REMARK   17  A    between atoms: _35  and  _36
REMARK   18  A    between atoms: _35  and  _38
REMARK   19  A    between atoms: _38  and  _39
REMARK   20  A    between atoms: _44  and  _45
REMARK   21  A    between atoms: _47  and  _49
REMARK   22  A    between atoms: _49  and  _50
REMARK   23  A    between atoms: _53  and  _55
REMARK   24  A    between atoms: _55  and  _56
REMARK   25  A    between atoms: _55  and  _58
REMARK   26  A    between atoms: _58  and  _59
REMARK   27  A    between atoms: _64  and  _65
REMARK   28  A    between atoms: _67  and  _69
REMARK   29  A    between atoms: _69  and  _70
REMARK   30  A    between atoms: _69  and  _72
REMARK   31  A    between atoms: _72  and  _73
REMARK   32  A    between atoms: _78  and  _80
REMARK   33  A    between atoms: _80  and  _81
REMARK   34  A    between atoms: _80  and  _83
REMARK   35  A    between atoms: _83  and  _84
REMARK   36  A    between atoms: _87  and  _89
REMARK   37  A    between atoms: _89  and  _90
REMARK   38  A    between atoms: _89  and  _92
REMARK   39  A    between atoms: _92  and  _93
REMARK   40  A    between atoms: _93  and  _94
REMARK   41  A    between atoms: _99  and  _101
REMARK   42  A    between atoms: _101  and  _102
REMARK   43  A    between atoms: _101  and  _104
REMARK   44  A    between atoms: _104  and  _105
REMARK   45  A    between atoms: _115  and  _117
REMARK   46  A    between atoms: _117  and  _118
REMARK   47  A    between atoms: _117  and  _120
REMARK   48  A    between atoms: _120  and  _121
REMARK   49  A    between atoms: _124  and  _126
REMARK   50  A    between atoms: _126  and  _127
REMARK   51  A    between atoms: _126  and  _129
REMARK   52  A    between atoms: _129  and  _130
REMARK   53  A    between atoms: _133  and  _135
REMARK   54  A    between atoms: _135  and  _136
REMARK   55  A    between atoms: _135  and  _138
REMARK   56  A    between atoms: _138  and  _139
REMARK   57  A    between atoms: _139  and  _140
REMARK   58  A    between atoms: _142  and  _144
REMARK   59  A    between atoms: _144  and  _145
REMARK   60  A    between atoms: _148  and  _150
REMARK   61  A    between atoms: _150  and  _151
REMARK   62  A    between atoms: _154  and  _156
REMARK   63  A    between atoms: _156  and  _157
REMARK   64  A    between atoms: _156  and  _159
REMARK   65  A    between atoms: _159  and  _160
REMARK   66  A    between atoms: _160  and  _161
REMARK   67  A    between atoms: _163  and  _165
REMARK   68  A    between atoms: _165  and  _166
REMARK   69  A    between atoms: _168  and  _170
REMARK   70  A    between atoms: _170  and  _171
REMARK   71  A    between atoms: _170  and  _173
REMARK   72  A    between atoms: _173  and  _174
REMARK   73  A    between atoms: _177  and  _179
REMARK   74  A    between atoms: _179  and  _180
REMARK   75  A    between atoms: _179  and  _182
REMARK   76  A    between atoms: _182  and  _183
REMARK   77  A    between atoms: _183  and  _184
REMARK   78  A    between atoms: _189  and  _191
REMARK   79  A    between atoms: _191  and  _192
REMARK   80  A    between atoms: _191  and  _194
REMARK   81  A    between atoms: _194  and  _195
REMARK   82  A    between atoms: _195  and  _196
REMARK   83  A    between atoms: _196  and  _197
REMARK   84  A    between atoms: _206  and  _208
REMARK   85  A    between atoms: _208  and  _209
REMARK   86  A    between atoms: _208  and  _211
REMARK   87  A    between atoms: _211  and  _212
REMARK   88  A    between atoms: _218  and  _220
REMARK   89  A    between atoms: _220  and  _221
REMARK   90  A    between atoms: _220  and  _223
REMARK   91  A    between atoms: _223  and  _224
REMARK   92  A    between atoms: _227  and  _229
REMARK   93  A    between atoms: _229  and  _230
REMARK   94  A    between atoms: _229  and  _232
REMARK   95  A    between atoms: _232  and  _233
REMARK   96  A    between atoms: _236  and  _238
REMARK   97  A    between atoms: _238  and  _239
REMARK   98  A    between atoms: _238  and  _241
REMARK   99  A    between atoms: _241  and  _242
REMARK  100  A    between atoms: _246  and  _247
REMARK  101  A    between atoms: _252  and  _254
REMARK  102  A    between atoms: _254  and  _255
REMARK  103  A    between atoms: _254  and  _257
REMARK  104  A    between atoms: _257  and  _258
REMARK  105  A    between atoms: _263  and  _265
REMARK  106  A    between atoms: _265  and  _266
REMARK  107  A    between atoms: _265  and  _268
REMARK  108  A    between atoms: _268  and  _269
REMARK  109  A    between atoms: _272  and  _274
REMARK  110  A    between atoms: _274  and  _275
REMARK  111  A    between atoms: _274  and  _277
REMARK  112  A    between atoms: _277  and  _278
REMARK  113  A    between atoms: _278  and  _279
REMARK  114  A    between atoms: _284  and  _286
REMARK  115  A    between atoms: _286  and  _287
REMARK  116  A    between atoms: _290  and  _292
REMARK  117  A    between atoms: _292  and  _293
REMARK  118  A    between atoms: _295  and  _297
REMARK  119  A    between atoms: _297  and  _298
REMARK  120  A    between atoms: _297  and  _300
REMARK  121  A    between atoms: _300  and  _301
REMARK  122  A    between atoms: _304  and  _306
REMARK  123  A    between atoms: _306  and  _307
REMARK  124  A    between atoms: _306  and  _309
REMARK  125  A    between atoms: _309  and  _310
REMARK  126  A    between atoms: _312  and  _314
REMARK  127  A    between atoms: _314  and  _315
REMARK  128  A    between atoms: _314  and  _317
REMARK  129  A    between atoms: _317  and  _318
REMARK  130  A    between atoms: _323  and  _325
REMARK  131  A    between atoms: _325  and  _326
REMARK  132  A    between atoms: _325  and  _328
REMARK  133  A    between atoms: _328  and  _329
REMARK  134  A    between atoms: _329  and  _330
REMARK  135  A    between atoms: _333  and  _335
REMARK  136  A    between atoms: _335  and  _336
REMARK  137  A    between atoms: _339  and  _341
REMARK  138  A    between atoms: _341  and  _342
REMARK  139  A    between atoms: _341  and  _344
REMARK  140  A    between atoms: _344  and  _345
REMARK  141  A    between atoms: _351  and  _353
REMARK  142  A    between atoms: _353  and  _354
REMARK  143  A    between atoms: _353  and  _356
REMARK  144  A    between atoms: _356  and  _357
REMARK  145  A    between atoms: _360  and  _362
REMARK  146  A    between atoms: _362  and  _363
REMARK  147  A    between atoms: _362  and  _365
REMARK  148  A    between atoms: _365  and  _366
REMARK  149  A    between atoms: _369  and  _371
REMARK  150  A    between atoms: _371  and  _372
REMARK  151  A    between atoms: _371  and  _374
REMARK  152  A    between atoms: _374  and  _375
REMARK  153  A    between atoms: _378  and  _380
REMARK  154  A    between atoms: _380  and  _381
REMARK  155  A    between atoms: _380  and  _383
REMARK  156  A    between atoms: _383  and  _384
REMARK  157  A    between atoms: _387  and  _389
REMARK  158  A    between atoms: _389  and  _390
REMARK  159  A    between atoms: _389  and  _392
REMARK  160  A    between atoms: _392  and  _393
REMARK  161  A    between atoms: _396  and  _398
REMARK  162  A    between atoms: _398  and  _399
REMARK  163  A    between atoms: _402  and  _404
REMARK  164  A    between atoms: _404  and  _405
REMARK  165  A    between atoms: _404  and  _407
REMARK  166  A    between atoms: _407  and  _408
REMARK  167  A    between atoms: _410  and  _412
REMARK  168  A    between atoms: _412  and  _413
REMARK  169  A    between atoms: _412  and  _415
REMARK  170  A    between atoms: _418  and  _420
REMARK  171  A    between atoms: _420  and  _421
REMARK  172  A    between atoms: _420  and  _423
REMARK  173  A    between atoms: _423  and  _424
REMARK  174  A    between atoms: _426  and  _428
REMARK  175  A    between atoms: _428  and  _429
REMARK  176  A    between atoms: _428  and  _431
REMARK  177  A    between atoms: _431  and  _432
REMARK  178  A    between atoms: _438  and  _440
REMARK  179  A    between atoms: _440  and  _441
REMARK  180  A    between atoms: _440  and  _443
REMARK  181  A    between atoms: _443  and  _444
REMARK  182  A    between atoms: _447  and  _449
REMARK  183  A    between atoms: _449  and  _450
REMARK  184  A    between atoms: _449  and  _452
REMARK  185  A    between atoms: _452  and  _453
REMARK  186  A    between atoms: _453  and  _454
REMARK  187  A    between atoms: _456  and  _458
REMARK  188  A    between atoms: _458  and  _459
REMARK  189  A    between atoms: _461  and  _463
REMARK  190  A    between atoms: _463  and  _464
REMARK  191  A    between atoms: _463  and  _466
REMARK  192  A    between atoms: _466  and  _467
REMARK  193  A    between atoms: _470  and  _472
REMARK  194  A    between atoms: _472  and  _473
REMARK  195  A    between atoms: _472  and  _475
REMARK  196  A    between atoms: _475  and  _476
REMARK  197  A    between atoms: _482  and  _484
REMARK  198  A    between atoms: _484  and  _485
REMARK  199  A    between atoms: _487  and  _489
REMARK  200  A    between atoms: _489  and  _490
REMARK  201  A    between atoms: _489  and  _492
REMARK  202  A    between atoms: _492  and  _493
REMARK  203  A    between atoms: _493  and  _494
REMARK  204  A    between atoms: _494  and  _495
REMARK  205  A    between atoms: _495  and  _496
REMARK  206  A    between atoms: _500  and  _502
REMARK  207  A    between atoms: _502  and  _503
REMARK  208  A    between atoms: _505  and  _507
REMARK  209  A    between atoms: _507  and  _508
REMARK  210  A    between atoms: _507  and  _510
REMARK  211  A    between atoms: _513  and  _515
REMARK  212  A    between atoms: _515  and  _516
REMARK  213  A    between atoms: _518  and  _520
REMARK  214  A    between atoms: _520  and  _521
REMARK  215  A    between atoms: _520  and  _523
REMARK  216  A    between atoms: _523  and  _524
REMARK                            x       y       z     vdW  Elec       q    Type
REMARK                         _______ _______ _______ _____ _____    ______ ____
ROOT
ATOM      1  CA  MET A   1      16.490  -0.249   6.657  0.00  0.00    +0.134 C 
ENDROOT
BRANCH   1   2
ATOM      2  N   MET A   1      17.854   0.299   6.589  0.00  0.00    -0.239 NA
ATOM      3  H   MET A   1      18.275   0.480   5.655  0.00  0.00    +0.142 HD
ENDBRANCH   1   2
BRANCH   1   4
ATOM      4  C   MET A   1      16.395  -1.725   6.423  0.00  0.00    +0.224 C 
ATOM      5  O   MET A   1      17.091  -2.269   5.571  0.00  0.00    -0.287 OA
ENDBRANCH   1   4
BRANCH   1   6
ATOM      6  CB  MET A   1      15.575   0.480   5.660  0.00  0.00    +0.037 C 
BRANCH   6   7
ATOM      7  CG  MET A   1      15.640   2.013   5.826  0.00  0.00    +0.059 C 
BRANCH   7   8
ATOM      8  SD  MET A   1      14.604   2.879   4.646  0.00  0.00    -0.139 S 
ATOM      9  CE  MET A   1      15.536   2.535   3.087  0.00  0.00    +0.069 C 
ENDBRANCH   7   8
ENDBRANCH   6   7
ENDBRANCH   1   6
TORSDOF 5
REMARK  Name = ../refined-set-2016/4pp0/4pp0_pocket.pdb
REMARK  216 active torsions:
REMARK  status: ('A' for Active; 'I' for Inactive)
REMARK    1  A    between atoms: _1  and  _3
REMARK    2  A    between atoms: _3  and  _4
REMARK    3  A    between atoms: _3  and  _6
REMARK    4  A    between atoms: _6  and  _7
REMARK    5  A    between atoms: _10  and  _12
REMARK    6  A    between atoms: _12  and  _13
REMARK    7  A    between atoms: _12  and  _15
REMARK    8  A    between atoms: _15  and  _16
REMARK    9  A    between atoms: _16  and  _17
REMARK   10  A    between atoms: _20  and  _22
REMARK   11  A    between atoms: _22  and  _23
REMARK   12  A    between atoms: _25  and  _27
REMARK   13  A    between atoms: _27  and  _28
REMARK   14  A    between atoms: _27  and  _30
REMARK   15  A    between atoms: _30  and  _31
REMARK   16  A    between atoms: _33  and  _35
REMARK   17  A    between atoms: _35  and  _36
REMARK   18  A    between atoms: _35  and  _38
REMARK   19  A    between atoms: _38  and  _39
REMARK   20  A    between atoms: _44  and  _45
REMARK   21  A    between atoms: _47  and  _49
REMARK   22  A    between atoms: _49  and  _50
REMARK   23  A    between atoms: _53  and  _55
REMARK   24  A    between atoms: _55  and  _56
REMARK   25  A    between atoms: _55  and  _58
REMARK   26  A    between atoms: _58  and  _59
REMARK   27  A    between atoms: _64  and  _65
REMARK   28  A    between atoms: _67  and  _69
REMARK   29  A    between atoms: _69  and  _70
REMARK   30  A    between atoms: _69  and  _72
REMARK   31  A    between atoms: _72  and  _73
REMARK   32  A    between atoms: _78  and  _80
REMARK   33  A    between atoms: _80  and  _81
REMARK   34  A    between atoms: _80  and  _83
REMARK   35  A    between atoms: _83  and  _84
REMARK   36  A    between atoms: _87  and  _89
REMARK   37  A    between atoms: _89  and  _90
REMARK   38  A    between atoms: _89  and  _92
REMARK   39  A    between atoms: _92  and  _93
REMARK   40  A    between atoms: _93  and  _94
REMARK   41  A    between atoms: _99  and  _101
REMARK   42  A    between atoms: _101  and  _102
REMARK   43  A    between atoms: _101  and  _104
REMARK   44  A    between atoms: _104  and  _105
REMARK   45  A    between atoms: _115  and  _117
REMARK   46  A    between atoms: _117  and  _118
REMARK   47  A    between atoms: _117  and  _120
REMARK   48  A    between atoms: _120  and  _121
REMARK   49  A    between atoms: _124  and  _126
REMARK   50  A    between atoms: _126  and  _127
REMARK   51  A    between atoms: _126  and  _129
REMARK   52  A    between atoms: _129  and  _130
REMARK   53  A    between atoms: _133  and  _135
REMARK   54  A    between atoms: _135  and  _136
REMARK   55  A    between atoms: _135  and  _138
REMARK   56  A    between atoms: _138  and  _139
REMARK   57  A    between atoms: _139  and  _140
REMARK   58  A    between atoms: _142  and  _144
REMARK   59  A    between atoms: _144  and  _145
REMARK   60  A    between atoms: _148  and  _150
REMARK   61  A    between atoms: _150  and  _151
REMARK   62  A    between atoms: _154  and  _156
REMARK   63  A    between atoms: _156  and  _157
REMARK   64  A    between atoms: _156  and  _159
REMARK   65  A    between atoms: _159  and  _160
REMARK   66  A    between atoms: _160  and  _161
REMARK   67  A    between atoms: _163  and  _165
REMARK   68  A    between atoms: _165  and  _166
REMARK   69  A    between atoms: _168  and  _170
REMARK   70  A    between atoms: _170  and  _171
REMARK   71  A    between atoms: _170  and  _173
REMARK   72  A    between atoms: _173  and  _174
REMARK   73  A    between atoms: _177  and  _179
REMARK   74  A    between atoms: _179  and  _180
REMARK   75  A    between atoms: _179  and  _182
REMARK   76  A    between atoms: _182  and  _183
REMARK   77  A    between atoms: _183  and  _184
REMARK   78  A    between atoms: _189  and  _191
REMARK   79  A    between atoms: _191  and  _192
REMARK   80  A    between atoms: _191  and  _194
REMARK   81  A    between atoms: _194  and  _195
REMARK   82  A    between atoms: _195  and  _196
REMARK   83  A    between atoms: _196  and  _197
REMARK   84  A    between atoms: _206  and  _208
REMARK   85  A    between atoms: _208  and  _209
REMARK   86  A    between atoms: _208  and  _211
REMARK   87  A    between atoms: _211  and  _212
REMARK   88  A    between atoms: _218  and  _220
REMARK   89  A    between atoms: _220  and  _221
REMARK   90  A    between atoms: _220  and  _223
REMARK   91  A    between atoms: _223  and  _224
REMARK   92  A    between atoms: _227  and  _229
REMARK   93  A    between atoms: _229  and  _230
REMARK   94  A    between atoms: _229  and  _232
REMARK   95  A    between atoms: _232  and  _233
REMARK   96  A    between atoms: _236  and  _238
REMARK   97  A    between atoms: _238  and  _239
REMARK   98  A    between atoms: _238  and  _241
REMARK   99  A    between atoms: _241  and  _242
REMARK  100  A    between atoms: _246  and  _247
REMARK  101  A    between atoms: _252  and  _254
REMARK  102  A    between atoms: _254  and  _255
REMARK  103  A    between atoms: _254  and  _257
REMARK  104  A    between atoms: _257  and  _258
REMARK  105  A    between atoms: _263  and  _265
REMARK  106  A    between atoms: _265  and  _266
REMARK  107  A    between atoms: _265  and  _268
REMARK  108  A    between atoms: _268  and  _269
REMARK  109  A    between atoms: _272  and  _274
REMARK  110  A    between atoms: _274  and  _275
REMARK  111  A    between atoms: _274  and  _277
REMARK  112  A    between atoms: _277  and  _278
REMARK  113  A    between atoms: _278  and  _279
REMARK  114  A    between atoms: _284  and  _286
REMARK  115  A    between atoms: _286  and  _287
REMARK  116  A    between atoms: _290  and  _292
REMARK  117  A    between atoms: _292  and  _293
REMARK  118  A    between atoms: _295  and  _297
REMARK  119  A    between atoms: _297  and  _298
REMARK  120  A    between atoms: _297  and  _300
REMARK  121  A    between atoms: _300  and  _301
REMARK  122  A    between atoms: _304  and  _306
REMARK  123  A    between atoms: _306  and  _307
REMARK  124  A    between atoms: _306  and  _309
REMARK  125  A    between atoms: _309  and  _310
REMARK  126  A    between atoms: _312  and  _314
REMARK  127  A    between atoms: _314  and  _315
REMARK  128  A    between atoms: _314  and  _317
REMARK  129  A    between atoms: _317  and  _318
REMARK  130  A    between atoms: _323  and  _325
REMARK  131  A    between atoms: _325  and  _326
REMARK  132  A    between atoms: _325  and  _328
REMARK  133  A    between atoms: _328  and  _329
REMARK  134  A    between atoms: _329  and  _330
REMARK  135  A    between atoms: _333  and  _335
REMARK  136  A    between atoms: _335  and  _336
REMARK  137  A    between atoms: _339  and  _341
REMARK  138  A    between atoms: _341  and  _342
REMARK  139  A    between atoms: _341  and  _344
REMARK  140  A    between atoms: _344  and  _345
REMARK  141  A    between atoms: _351  and  _353
REMARK  142  A    between atoms: _353  and  _354
REMARK  143  A    between atoms: _353  and  _356
REMARK  144  A    between atoms: _356  and  _357
REMARK  145  A    between atoms: _360  and  _362
REMARK  146  A    between atoms: _362  and  _363
REMARK  147  A    between atoms: _362  and  _365
REMARK  148  A    between atoms: _365  and  _366
REMARK  149  A    between atoms: _369  and  _371
REMARK  150  A    between atoms: _371  and  _372
REMARK  151  A    between atoms: _371  and  _374
REMARK  152  A    between atoms: _374  and  _375
REMARK  153  A    between atoms: _378  and  _380
REMARK  154  A    between atoms: _380  and  _381
REMARK  155  A    between atoms: _380  and  _383
REMARK  156  A    between atoms: _383  and  _384
REMARK  157  A    between atoms: _387  and  _389
REMARK  158  A    between atoms: _389  and  _390
REMARK  159  A    between atoms: _389  and  _392
REMARK  160  A    between atoms: _392  and  _393
REMARK  161  A    between atoms: _396  and  _398
REMARK  162  A    between atoms: _398  and  _399
REMARK  163  A    between atoms: _402  and  _404
REMARK  164  A    between atoms: _404  and  _405
REMARK  165  A    between atoms: _404  and  _407
REMARK  166  A    between atoms: _407  and  _408
REMARK  167  A    between atoms: _410  and  _412
REMARK  168  A    between atoms: _412  and  _413
REMARK  169  A    between atoms: _412  and  _415
REMARK  170  A    between atoms: _418  and  _420
REMARK  171  A    between atoms: _420  and  _421
REMARK  172  A    between atoms: _420  and  _423
REMARK  173  A    between atoms: _423  and  _424
REMARK  174  A    between atoms: _426  and  _428
REMARK  175  A    between atoms: _428  and  _429
REMARK  176  A    between atoms: _428  and  _431
REMARK  177  A    between atoms: _431  and  _432
REMARK  178  A    between atoms: _438  and  _440
REMARK  179  A    between atoms: _440  and  _441
REMARK  180  A    between atoms: _440  and  _443
REMARK  181  A    between atoms: _443  and  _444
REMARK  182  A    between atoms: _447  and  _449
REMARK  183  A    between atoms: _449  and  _450
REMARK  184  A    between atoms: _449  and  _452
REMARK  185  A    between atoms: _452  and  _453
REMARK  186  A    between atoms: _453  and  _454
REMARK  187  A    between atoms: _456  and  _458
REMARK  188  A    between atoms: _458  and  _459
REMARK  189  A    between atoms: _461  and  _463
REMARK  190  A    between atoms: _463  and  _464
REMARK  191  A    between atoms: _463  and  _466
REMARK  192  A    between atoms: _466  and  _467
REMARK  193  A    between atoms: _470  and  _472
REMARK  194  A    between atoms: _472  and  _473
REMARK  195  A    between atoms: _472  and  _475
REMARK  196  A    between atoms: _475  and  _476
REMARK  197  A    between atoms: _482  and  _484
REMARK  198  A    between atoms: _484  and  _485
REMARK  199  A    between atoms: _487  and  _489
REMARK  200  A    between atoms: _489  and  _490
REMARK  201  A    between atoms: _489  and  _492
REMARK  202  A    between atoms: _492  and  _493
REMARK  203  A    between atoms: _493  and  _494
REMARK  204  A    between atoms: _494  and  _495
REMARK  205  A    between atoms: _495  and  _496
REMARK  206  A    between atoms: _500  and  _502
REMARK  207  A    between atoms: _502  and  _503
REMARK  208  A    between atoms: _505  and  _507
REMARK  209  A    between atoms: _507  and  _508
REMARK  210  A    between atoms: _507  and  _510
REMARK  211  A    between atoms: _513  and  _515
REMARK  212  A    between atoms: _515  and  _516
REMARK  213  A    between atoms: _518  and  _520
REMARK  214  A    between atoms: _520  and  _521
REMARK  215  A    between atoms: _520  and  _523
REMARK  216  A    between atoms: _523  and  _524
REMARK                            x       y       z     vdW  Elec       q    Type
REMARK                         _______ _______ _______ _____ _____    ______ ____
ROOT
ATOM      1  CA  GLY A   1      11.982  -5.696   6.586  0.00  0.00    +0.156 C 
ENDROOT
BRANCH   1   2
ATOM      2  N   GLY A   1      13.360  -5.238   6.497  0.00  0.00    -0.238 NA
ATOM      3  H   GLY A   1      14.059  -5.826   6.000  0.00  0.00    +0.142 HD
ENDBRANCH   1   2
BRANCH   1   4
ATOM      4  C   GLY A   1      11.000  -4.956   5.707  0.00  0.00    +0.226 C 
ATOM      5  O   GLY A   1      11.380  -4.341   4.703  0.00  0.00    -0.287 OA
ENDBRANCH   1   4
TORSDOF 2
REMARK  Name = ../refined-set-2016/4pp0/4pp0_pocket.pdb
REMARK  216 active torsions:
REMARK  status: ('A' for Active; 'I' for Inactive)
REMARK    1  A    between atoms: _1  and  _3
REMARK    2  A    between atoms: _3  and  _4
REMARK    3  A    between atoms: _3  and  _6
REMARK    4  A    between atoms: _6  and  _7
REMARK    5  A    between atoms: _10  and  _12
REMARK    6  A    between atoms: _12  and  _13
REMARK    7  A    between atoms: _12  and  _15
REMARK    8  A    between atoms: _15  and  _16
REMARK    9  A    between atoms: _16  and  _17
REMARK   10  A    between atoms: _20  and  _22
REMARK   11  A    between atoms: _22  and  _23
REMARK   12  A    between atoms: _25  and  _27
REMARK   13  A    between atoms: _27  and  _28
REMARK   14  A    between atoms: _27  and  _30
REMARK   15  A    between atoms: _30  and  _31
REMARK   16  A    between atoms: _33  and  _35
REMARK   17  A    between atoms: _35  and  _36
REMARK   18  A    between atoms: _35  and  _38
REMARK   19  A    between atoms: _38  and  _39
REMARK   20  A    between atoms: _44  and  _45
REMARK   21  A    between atoms: _47  and  _49
REMARK   22  A    between atoms: _49  and  _50
REMARK   23  A    between atoms: _53  and  _55
REMARK   24  A    between atoms: _55  and  _56
REMARK   25  A    between atoms: _55  and  _58
REMARK   26  A    between atoms: _58  and  _59
REMARK   27  A    between atoms: _64  and  _65
REMARK   28  A    between atoms: _67  and  _69
REMARK   29  A    between atoms: _69  and  _70
REMARK   30  A    between atoms: _69  and  _72
REMARK   31  A    between atoms: _72  and  _73
REMARK   32  A    between atoms: _78  and  _80
REMARK   33  A    between atoms: _80  and  _81
REMARK   34  A    between atoms: _80  and  _83
REMARK   35  A    between atoms: _83  and  _84
REMARK   36  A    between atoms: _87  and  _89
REMARK   37  A    between atoms: _89  and  _90
REMARK   38  A    between atoms: _89  and  _92
REMARK   39  A    between atoms: _92  and  _93
REMARK   40  A    between atoms: _93  and  _94
REMARK   41  A    between atoms: _99  and  _101
REMARK   42  A    between atoms: _101  and  _102
REMARK   43  A    between atoms: _101  and  _104
REMARK   44  A    between atoms: _104  and  _105
REMARK   45  A    between atoms: _115  and  _117
REMARK   46  A    between atoms: _117  and  _118
REMARK   47  A    between atoms: _117  and  _120
REMARK   48  A    between atoms: _120  and  _121
REMARK   49  A    between atoms: _124  and  _126
REMARK   50  A    between atoms: _126  and  _127
REMARK   51  A    between atoms: _126  and  _129
REMARK   52  A    between atoms: _129  and  _130
REMARK   53  A    between atoms: _133  and  _135
REMARK   54  A    between atoms: _135  and  _136
REMARK   55  A    between atoms: _135  and  _138
REMARK   56  A    between atoms: _138  and  _139
REMARK   57  A    between atoms: _139  and  _140
REMARK   58  A    between atoms: _142  and  _144
REMARK   59  A    between atoms: _144  and  _145
REMARK   60  A    between atoms: _148  and  _150
REMARK   61  A    between atoms: _150  and  _151
REMARK   62  A    between atoms: _154  and  _156
REMARK   63  A    between atoms: _156  and  _157
REMARK   64  A    between atoms: _156  and  _159
REMARK   65  A    between atoms: _159  and  _160
REMARK   66  A    between atoms: _160  and  _161
REMARK   67  A    between atoms: _163  and  _165
REMARK   68  A    between atoms: _165  and  _166
REMARK   69  A    between atoms: _168  and  _170
REMARK   70  A    between atoms: _170  and  _171
REMARK   71  A    between atoms: _170  and  _173
REMARK   72  A    between atoms: _173  and  _174
REMARK   73  A    between atoms: _177  and  _179
REMARK   74  A    between atoms: _179  and  _180
REMARK   75  A    between atoms: _179  and  _182
REMARK   76  A    between atoms: _182  and  _183
REMARK   77  A    between atoms: _183  and  _184
REMARK   78  A    between atoms: _189  and  _191
REMARK   79  A    between atoms: _191  and  _192
REMARK   80  A    between atoms: _191  and  _194
REMARK   81  A    between atoms: _194  and  _195
REMARK   82  A    between atoms: _195  and  _196
REMARK   83  A    between atoms: _196  and  _197
REMARK   84  A    between atoms: _206  and  _208
REMARK   85  A    between atoms: _208  and  _209
REMARK   86  A    between atoms: _208  and  _211
REMARK   87  A    between atoms: _211  and  _212
REMARK   88  A    between atoms: _218  and  _220
REMARK   89  A    between atoms: _220  and  _221
REMARK   90  A    between atoms: _220  and  _223
REMARK   91  A    between atoms: _223  and  _224
REMARK   92  A    between atoms: _227  and  _229
REMARK   93  A    between atoms: _229  and  _230
REMARK   94  A    between atoms: _229  and  _232
REMARK   95  A    between atoms: _232  and  _233
REMARK   96  A    between atoms: _236  and  _238
REMARK   97  A    between atoms: _238  and  _239
REMARK   98  A    between atoms: _238  and  _241
REMARK   99  A    between atoms: _241  and  _242
REMARK  100  A    between atoms: _246  and  _247
REMARK  101  A    between atoms: _252  and  _254
REMARK  102  A    between atoms: _254  and  _255
REMARK  103  A    between atoms: _254  and  _257
REMARK  104  A    between atoms: _257  and  _258
REMARK  105  A    between atoms: _263  and  _265
REMARK  106  A    between atoms: _265  and  _266
REMARK  107  A    between atoms: _265  and  _268
REMARK  108  A    between atoms: _268  and  _269
REMARK  109  A    between atoms: _272  and  _274
REMARK  110  A    between atoms: _274  and  _275
REMARK  111  A    between atoms: _274  and  _277
REMARK  112  A    between atoms: _277  and  _278
REMARK  113  A    between atoms: _278  and  _279
REMARK  114  A    between atoms: _284  and  _286
REMARK  115  A    between atoms: _286  and  _287
REMARK  116  A    between atoms: _290  and  _292
REMARK  117  A    between atoms: _292  and  _293
REMARK  118  A    between atoms: _295  and  _297
REMARK  119  A    between atoms: _297  and  _298
REMARK  120  A    between atoms: _297  and  _300
REMARK  121  A    between atoms: _300  and  _301
REMARK  122  A    between atoms: _304  and  _306
REMARK  123  A    between atoms: _306  and  _307
REMARK  124  A    between atoms: _306  and  _309
REMARK  125  A    between atoms: _309  and  _310
REMARK  126  A    between atoms: _312  and  _314
REMARK  127  A    between atoms: _314  and  _315
REMARK  128  A    between atoms: _314  and  _317
REMARK  129  A    between atoms: _317  and  _318
REMARK  130  A    between atoms: _323  and  _325
REMARK  131  A    between atoms: _325  and  _326
REMARK  132  A    between atoms: _325  and  _328
REMARK  133  A    between atoms: _328  and  _329
REMARK  134  A    between atoms: _329  and  _330
REMARK  135  A    between atoms: _333  and  _335
REMARK  136  A    between atoms: _335  and  _336
REMARK  137  A    between atoms: _339  and  _341
REMARK  138  A    between atoms: _341  and  _342
REMARK  139  A    between atoms: _341  and  _344
REMARK  140  A    between atoms: _344  and  _345
REMARK  141  A    between atoms: _351  and  _353
REMARK  142  A    between atoms: _353  and  _354
REMARK  143  A    between atoms: _353  and  _356
REMARK  144  A    between atoms: _356  and  _357
REMARK  145  A    between atoms: _360  and  _362
REMARK  146  A    between atoms: _362  and  _363
REMARK  147  A    between atoms: _362  and  _365
REMARK  148  A    between atoms: _365  and  _366
REMARK  149  A    between atoms: _369  and  _371
REMARK  150  A    between atoms: _371  and  _372
REMARK  151  A    between atoms: _371  and  _374
REMARK  152  A    between atoms: _374  and  _375
REMARK  153  A    between atoms: _378  and  _380
REMARK  154  A    between atoms: _380  and  _381
REMARK  155  A    between atoms: _380  and  _383
REMARK  156  A    between atoms: _383  and  _384
REMARK  157  A    between atoms: _387  and  _389
REMARK  158  A    between atoms: _389  and  _390
REMARK  159  A    between atoms: _389  and  _392
REMARK  160  A    between atoms: _392  and  _393
REMARK  161  A    between atoms: _396  and  _398
REMARK  162  A    between atoms: _398  and  _399
REMARK  163  A    between atoms: _402  and  _404
REMARK  164  A    between atoms: _404  and  _405
REMARK  165  A    between atoms: _404  and  _407
REMARK  166  A    between atoms: _407  and  _408
REMARK  167  A    between atoms: _410  and  _412
REMARK  168  A    between atoms: _412  and  _413
REMARK  169  A    between atoms: _412  and  _415
REMARK  170  A    between atoms: _418  and  _420
REMARK  171  A    between atoms: _420  and  _421
REMARK  172  A    between atoms: _420  and  _423
REMARK  173  A    between atoms: _423  and  _424
REMARK  174  A    between atoms: _426  and  _428
REMARK  175  A    between atoms: _428  and  _429
REMARK  176  A    between atoms: _428  and  _431
REMARK  177  A    between atoms: _431  and  _432
REMARK  178  A    between atoms: _438  and  _440
REMARK  179  A    between atoms: _440  and  _441
REMARK  180  A    between atoms: _440  and  _443
REMARK  181  A    between atoms: _443  and  _444
REMARK  182  A    between atoms: _447  and  _449
REMARK  183  A    between atoms: _449  and  _450
REMARK  184  A    between atoms: _449  and  _452
REMARK  185  A    between atoms: _452  and  _453
REMARK  186  A    between atoms: _453  and  _454
REMARK  187  A    between atoms: _456  and  _458
REMARK  188  A    between atoms: _458  and  _459
REMARK  189  A    between atoms: _461  and  _463
REMARK  190  A    between atoms: _463  and  _464
REMARK  191  A    between atoms: _463  and  _466
REMARK  192  A    between atoms: _466  and  _467
REMARK  193  A    between atoms: _470  and  _472
REMARK  194  A    between atoms: _472  and  _473
REMARK  195  A    between atoms: _472  and  _475
REMARK  196  A    between atoms: _475  and  _476
REMARK  197  A    between atoms: _482  and  _484
REMARK  198  A    between atoms: _484  and  _485
REMARK  199  A    between atoms: _487  and  _489
REMARK  200  A    between atoms: _489  and  _490
REMARK  201  A    between atoms: _489  and  _492
REMARK  202  A    between atoms: _492  and  _493
REMARK  203  A    between atoms: _493  and  _494
REMARK  204  A    between atoms: _494  and  _495
REMARK  205  A    between atoms: _495  and  _496
REMARK  206  A    between atoms: _500  and  _502
REMARK  207  A    between atoms: _502  and  _503
REMARK  208  A    between atoms: _505  and  _507
REMARK  209  A    between atoms: _507  and  _508
REMARK  210  A    between atoms: _507  and  _510
REMARK  211  A    between atoms: _513  and  _515
REMARK  212  A    between atoms: _515  and  _516
REMARK  213  A    between atoms: _518  and  _520
REMARK  214  A    between atoms: _520  and  _521
REMARK  215  A    between atoms: _520  and  _523
REMARK  216  A    between atoms: _523  and  _524
REMARK                            x       y       z     vdW  Elec       q    Type
REMARK                         _______ _______ _______ _____ _____    ______ ____
ROOT
ATOM      1  CA  LYS A   4      14.578 -10.567   5.100  0.00  0.00    +0.149 C 
ENDROOT
BRANCH   1   4
ATOM      2  C   GLY A   3      12.820  -9.149   4.180  0.00  0.00    +0.243 C 
ATOM      3  O   GLY A   3      13.307  -8.151   4.701  0.00  0.00    -0.273 OA
ATOM      4  N   LYS A   4      13.390 -10.355   4.272  0.00  0.00    -0.297 N 
ATOM      5  H   LYS A   4      12.983 -11.155   3.747  0.00  0.00    +0.150 HD
BRANCH   2   6
ATOM      6  CA  GLY A   3      11.578  -9.006   3.312  0.00  0.00    +0.176 C 
BRANCH   6   8
ATOM      7  C   PHE A   2      12.390  -7.241   1.854  0.00  0.00    +0.241 C 
ATOM      8  N   GLY A   3      11.514  -7.654   2.771  0.00  0.00    -0.295 N 
ATOM      9  H   GLY A   3      10.775  -7.003   3.105  0.00  0.00    +0.150 HD
ATOM     10  O   PHE A   2      13.277  -7.982   1.366  0.00  0.00    -0.273 OA
BRANCH   7  11
ATOM     11  CA  PHE A   2      12.355  -5.770   1.463  0.00  0.00    +0.153 C 
BRANCH  11  13
ATOM     12  C   LEU A   1       9.955  -5.415   1.035  0.00  0.00    +0.238 C 
ATOM     13  N   PHE A   2      11.053  -5.146   1.788  0.00  0.00    -0.297 N 
ATOM     14  H   PHE A   2      10.978  -4.498   2.598  0.00  0.00    +0.150 HD
ATOM     15  O   LEU A   1       9.975  -6.169   0.058  0.00  0.00    -0.274 OA
BRANCH  12  16
ATOM     16  CA  LEU A   1       8.618  -4.784   1.457  0.00  0.00    +0.145 C 
BRANCH  16  17
ATOM     17  N   LEU A   1       8.613  -4.276   2.831  0.00  0.00    -0.238 NA
ATOM     18  H   LEU A   1       8.501  -3.256   2.998  0.00  0.00    +0.142 HD
ENDBRANCH  16  17
BRANCH  16  19
ATOM     19  CB  LEU A   1       8.075  -3.736   0.448  0.00  0.00    +0.026 C 
BRANCH  19  20
ATOM     20  CG  LEU A   1       8.861  -2.415   0.338  0.00  0.00    +0.002 C 
ATOM     21  CD2 LEU A   1       7.967  -1.328  -0.290  0.00  0.00    +0.000 C 
ATOM     22  CD1 LEU A   1      10.127  -2.582  -0.544  0.00  0.00    +0.000 C 
ENDBRANCH  19  20
ENDBRANCH  16  19
ENDBRANCH  12  16
ENDBRANCH  11  13
BRANCH  11  23
ATOM     23  CB  PHE A   2      13.500  -5.058   2.197  0.00  0.00    +0.055 C 
BRANCH  23  24
ATOM     24  CG  PHE A   2      13.777  -3.636   1.777  0.00  0.00    -0.020 A 
ATOM     25  CD2 PHE A   2      13.429  -2.566   2.603  0.00  0.00    -0.004 A 
ATOM     26  CE2 PHE A   2      13.711  -1.249   2.220  0.00  0.00    -0.000 A 
ATOM     27  CZ  PHE A   2      14.311  -0.994   0.997  0.00  0.00    -0.000 A 
ATOM     28  CE1 PHE A   2      14.686  -2.044   0.189  0.00  0.00    -0.000 A 
ATOM     29  CD1 PHE A   2      14.420  -3.365   0.580  0.00  0.00    -0.004 A 
ENDBRANCH  23  24
ENDBRANCH  11  23
ENDBRANCH   7  11
ENDBRANCH   6   8
ENDBRANCH   2   6
ENDBRANCH   1   4
BRANCH   1  30
ATOM     30  C   LYS A   4      15.520 -11.493   4.355  0.00  0.00    +0.241 C 
ATOM     31  N   GLY A   5      16.739 -11.013   4.154  0.00  0.00    -0.295 N 
ATOM     32  H   GLY A   5      16.943 -10.030   4.426  0.00  0.00    +0.150 HD
ATOM     33  O   LYS A   4      15.142 -12.628   4.048  0.00  0.00    -0.273 OA
BRANCH  31  34
ATOM     34  CA  GLY A   5      17.804 -11.816   3.564  0.00  0.00    +0.176 C 
BRANCH  34  35
ATOM     35  C   GLY A   5      17.794 -11.921   2.053  0.00  0.00    +0.243 C 
ATOM     36  N   VAL A   6      18.842 -12.583   1.540  0.00  0.00    -0.297 N 
ATOM     37  H   VAL A   6      19.571 -12.909   2.206  0.00  0.00    +0.150 HD
ATOM     38  O   GLY A   5      16.893 -11.406   1.374  0.00  0.00    -0.273 OA
BRANCH  36  39
ATOM     39  CA  VAL A   6      19.049 -12.887   0.115  0.00  0.00    +0.149 C 
BRANCH  39  40
ATOM     40  C   VAL A   6      18.984 -14.399   0.005  0.00  0.00    +0.241 C 
ATOM     41  O   VAL A   6      19.553 -15.097   0.847  0.00  0.00    -0.273 OA
ATOM     42  N   GLY A   7      18.229 -14.897  -0.974  0.00  0.00    -0.296 N 
ATOM     43  H   GLY A   7      17.770 -14.260  -1.656  0.00  0.00    +0.150 HD
BRANCH  42  44
ATOM     44  CA  GLY A   7      18.050 -16.350  -1.083  0.00  0.00    +0.163 C 
BRANCH  44  45
ATOM     45  C   GLY A   7      18.104 -16.877  -2.503  0.00  0.00    +0.229 C 
ATOM     46  O   GLY A   7      18.110 -16.106  -3.476  0.00  0.00    -0.286 OA
ENDBRANCH  44  45
ENDBRANCH  42  44
ENDBRANCH  39  40
BRANCH  39  47
ATOM     47  CB  VAL A   6      20.425 -12.350  -0.340  0.00  0.00    +0.027 C 
ATOM     48  CG2 VAL A   6      20.435 -10.818  -0.275  0.00  0.00    +0.002 C 
ATOM     49  CG1 VAL A   6      20.773 -12.835  -1.750  0.00  0.00    +0.002 C 
ENDBRANCH  39  47
ENDBRANCH  36  39
ENDBRANCH  34  35
ENDBRANCH  31  34
ENDBRANCH   1  30
BRANCH   1  50
ATOM     50  CB  LYS A   4      14.205 -11.180   6.473  0.00  0.00    +0.029 C 
BRANCH  50  51
ATOM     51  CG  LYS A   4      15.436 -11.491   7.318  0.00  0.00    +0.000 C 
BRANCH  51  52
ATOM     52  CD  LYS A   4      15.059 -11.991   8.708  0.00  0.00    -0.024 C 
BRANCH  52  53
ATOM     53  CE  LYS A   4      16.319 -12.198   9.530  0.00  0.00    -0.086 C 
BRANCH  53  54
ATOM     54  NZ  LYS A   4      16.010 -12.484  10.953  0.00  0.00    +0.380 N 
ATOM     55  HZ1 LYS A   4      16.897 -12.619  11.479  0.00  0.00    -0.089 HD
ATOM     56  HZ2 LYS A   4      15.483 -11.685  11.359  0.00  0.00    -0.089 HD
ATOM     57  HZ3 LYS A   4      15.434 -13.348  11.015  0.00  0.00    -0.089 HD
ENDBRANCH  53  54
ENDBRANCH  52  53
ENDBRANCH  51  52
ENDBRANCH  50  51
ENDBRANCH   1  50
TORSDOF 24
REMARK  Name = ../refined-set-2016/4pp0/4pp0_pocket.pdb
REMARK  216 active torsions:
REMARK  status: ('A' for Active; 'I' for Inactive)
REMARK    1  A    between atoms: _1  and  _3
REMARK    2  A    between atoms: _3  and  _4
REMARK    3  A    between atoms: _3  and  _6
REMARK    4  A    between atoms: _6  and  _7
REMARK    5  A    between atoms: _10  and  _12
REMARK    6  A    between atoms: _12  and  _13
REMARK    7  A    between atoms: _12  and  _15
REMARK    8  A    between atoms: _15  and  _16
REMARK    9  A    between atoms: _16  and  _17
REMARK   10  A    between atoms: _20  and  _22
REMARK   11  A    between atoms: _22  and  _23
REMARK   12  A    between atoms: _25  and  _27
REMARK   13  A    between atoms: _27  and  _28
REMARK   14  A    between atoms: _27  and  _30
REMARK   15  A    between atoms: _30  and  _31
REMARK   16  A    between atoms: _33  and  _35
REMARK   17  A    between atoms: _35  and  _36
REMARK   18  A    between atoms: _35  and  _38
REMARK   19  A    between atoms: _38  and  _39
REMARK   20  A    between atoms: _44  and  _45
REMARK   21  A    between atoms: _47  and  _49
REMARK   22  A    between atoms: _49  and  _50
REMARK   23  A    between atoms: _53  and  _55
REMARK   24  A    between atoms: _55  and  _56
REMARK   25  A    between atoms: _55  and  _58
REMARK   26  A    between atoms: _58  and  _59
REMARK   27  A    between atoms: _64  and  _65
REMARK   28  A    between atoms: _67  and  _69
REMARK   29  A    between atoms: _69  and  _70
REMARK   30  A    between atoms: _69  and  _72
REMARK   31  A    between atoms: _72  and  _73
REMARK   32  A    between atoms: _78  and  _80
REMARK   33  A    between atoms: _80  and  _81
REMARK   34  A    between atoms: _80  and  _83
REMARK   35  A    between atoms: _83  and  _84
REMARK   36  A    between atoms: _87  and  _89
REMARK   37  A    between atoms: _89  and  _90
REMARK   38  A    between atoms: _89  and  _92
REMARK   39  A    between atoms: _92  and  _93
REMARK   40  A    between atoms: _93  and  _94
REMARK   41  A    between atoms: _99  and  _101
REMARK   42  A    between atoms: _101  and  _102
REMARK   43  A    between atoms: _101  and  _104
REMARK   44  A    between atoms: _104  and  _105
REMARK   45  A    between atoms: _115  and  _117
REMARK   46  A    between atoms: _117  and  _118
REMARK   47  A    between atoms: _117  and  _120
REMARK   48  A    between atoms: _120  and  _121
REMARK   49  A    between atoms: _124  and  _126
REMARK   50  A    between atoms: _126  and  _127
REMARK   51  A    between atoms: _126  and  _129
REMARK   52  A    between atoms: _129  and  _130
REMARK   53  A    between atoms: _133  and  _135
REMARK   54  A    between atoms: _135  and  _136
REMARK   55  A    between atoms: _135  and  _138
REMARK   56  A    between atoms: _138  and  _139
REMARK   57  A    between atoms: _139  and  _140
REMARK   58  A    between atoms: _142  and  _144
REMARK   59  A    between atoms: _144  and  _145
REMARK   60  A    between atoms: _148  and  _150
REMARK   61  A    between atoms: _150  and  _151
REMARK   62  A    between atoms: _154  and  _156
REMARK   63  A    between atoms: _156  and  _157
REMARK   64  A    between atoms: _156  and  _159
REMARK   65  A    between atoms: _159  and  _160
REMARK   66  A    between atoms: _160  and  _161
REMARK   67  A    between atoms: _163  and  _165
REMARK   68  A    between atoms: _165  and  _166
REMARK   69  A    between atoms: _168  and  _170
REMARK   70  A    between atoms: _170  and  _171
REMARK   71  A    between atoms: _170  and  _173
REMARK   72  A    between atoms: _173  and  _174
REMARK   73  A    between atoms: _177  and  _179
REMARK   74  A    between atoms: _179  and  _180
REMARK   75  A    between atoms: _179  and  _182
REMARK   76  A    between atoms: _182  and  _183
REMARK   77  A    between atoms: _183  and  _184
REMARK   78  A    between atoms: _189  and  _191
REMARK   79  A    between atoms: _191  and  _192
REMARK   80  A    between atoms: _191  and  _194
REMARK   81  A    between atoms: _194  and  _195
REMARK   82  A    between atoms: _195  and  _196
REMARK   83  A    between atoms: _196  and  _197
REMARK   84  A    between atoms: _206  and  _208
REMARK   85  A    between atoms: _208  and  _209
REMARK   86  A    between atoms: _208  and  _211
REMARK   87  A    between atoms: _211  and  _212
REMARK   88  A    between atoms: _218  and  _220
REMARK   89  A    between atoms: _220  and  _221
REMARK   90  A    between atoms: _220  and  _223
REMARK   91  A    between atoms: _223  and  _224
REMARK   92  A    between atoms: _227  and  _229
REMARK   93  A    between atoms: _229  and  _230
REMARK   94  A    between atoms: _229  and  _232
REMARK   95  A    between atoms: _232  and  _233
REMARK   96  A    between atoms: _236  and  _238
REMARK   97  A    between atoms: _238  and  _239
REMARK   98  A    between atoms: _238  and  _241
REMARK   99  A    between atoms: _241  and  _242
REMARK  100  A    between atoms: _246  and  _247
REMARK  101  A    between atoms: _252  and  _254
REMARK  102  A    between atoms: _254  and  _255
REMARK  103  A    between atoms: _254  and  _257
REMARK  104  A    between atoms: _257  and  _258
REMARK  105  A    between atoms: _263  and  _265
REMARK  106  A    between atoms: _265  and  _266
REMARK  107  A    between atoms: _265  and  _268
REMARK  108  A    between atoms: _268  and  _269
REMARK  109  A    between atoms: _272  and  _274
REMARK  110  A    between atoms: _274  and  _275
REMARK  111  A    between atoms: _274  and  _277
REMARK  112  A    between atoms: _277  and  _278
REMARK  113  A    between atoms: _278  and  _279
REMARK  114  A    between atoms: _284  and  _286
REMARK  115  A    between atoms: _286  and  _287
REMARK  116  A    between atoms: _290  and  _292
REMARK  117  A    between atoms: _292  and  _293
REMARK  118  A    between atoms: _295  and  _297
REMARK  119  A    between atoms: _297  and  _298
REMARK  120  A    between atoms: _297  and  _300
REMARK  121  A    between atoms: _300  and  _301
REMARK  122  A    between atoms: _304  and  _306
REMARK  123  A    between atoms: _306  and  _307
REMARK  124  A    between atoms: _306  and  _309
REMARK  125  A    between atoms: _309  and  _310
REMARK  126  A    between atoms: _312  and  _314
REMARK  127  A    between atoms: _314  and  _315
REMARK  128  A    between atoms: _314  and  _317
REMARK  129  A    between atoms: _317  and  _318
REMARK  130  A    between atoms: _323  and  _325
REMARK  131  A    between atoms: _325  and  _326
REMARK  132  A    between atoms: _325  and  _328
REMARK  133  A    between atoms: _328  and  _329
REMARK  134  A    between atoms: _329  and  _330
REMARK  135  A    between atoms: _333  and  _335
REMARK  136  A    between atoms: _335  and  _336
REMARK  137  A    between atoms: _339  and  _341
REMARK  138  A    between atoms: _341  and  _342
REMARK  139  A    between atoms: _341  and  _344
REMARK  140  A    between atoms: _344  and  _345
REMARK  141  A    between atoms: _351  and  _353
REMARK  142  A    between atoms: _353  and  _354
REMARK  143  A    between atoms: _353  and  _356
REMARK  144  A    between atoms: _356  and  _357
REMARK  145  A    between atoms: _360  and  _362
REMARK  146  A    between atoms: _362  and  _363
REMARK  147  A    between atoms: _362  and  _365
REMARK  148  A    between atoms: _365  and  _366
REMARK  149  A    between atoms: _369  and  _371
REMARK  150  A    between atoms: _371  and  _372
REMARK  151  A    between atoms: _371  and  _374
REMARK  152  A    between atoms: _374  and  _375
REMARK  153  A    between atoms: _378  and  _380
REMARK  154  A    between atoms: _380  and  _381
REMARK  155  A    between atoms: _380  and  _383
REMARK  156  A    between atoms: _383  and  _384
REMARK  157  A    between atoms: _387  and  _389
REMARK  158  A    between atoms: _389  and  _390
REMARK  159  A    between atoms: _389  and  _392
REMARK  160  A    between atoms: _392  and  _393
REMARK  161  A    between atoms: _396  and  _398
REMARK  162  A    between atoms: _398  and  _399
REMARK  163  A    between atoms: _402  and  _404
REMARK  164  A    between atoms: _404  and  _405
REMARK  165  A    between atoms: _404  and  _407
REMARK  166  A    between atoms: _407  and  _408
REMARK  167  A    between atoms: _410  and  _412
REMARK  168  A    between atoms: _412  and  _413
REMARK  169  A    between atoms: _412  and  _415
REMARK  170  A    between atoms: _418  and  _420
REMARK  171  A    between atoms: _420  and  _421
REMARK  172  A    between atoms: _420  and  _423
REMARK  173  A    between atoms: _423  and  _424
REMARK  174  A    between atoms: _426  and  _428
REMARK  175  A    between atoms: _428  and  _429
REMARK  176  A    between atoms: _428  and  _431
REMARK  177  A    between atoms: _431  and  _432
REMARK  178  A    between atoms: _438  and  _440
REMARK  179  A    between atoms: _440  and  _441
REMARK  180  A    between atoms: _440  and  _443
REMARK  181  A    between atoms: _443  and  _444
REMARK  182  A    between atoms: _447  and  _449
REMARK  183  A    between atoms: _449  and  _450
REMARK  184  A    between atoms: _449  and  _452
REMARK  185  A    between atoms: _452  and  _453
REMARK  186  A    between atoms: _453  and  _454
REMARK  187  A    between atoms: _456  and  _458
REMARK  188  A    between atoms: _458  and  _459
REMARK  189  A    between atoms: _461  and  _463
REMARK  190  A    between atoms: _463  and  _464
REMARK  191  A    between atoms: _463  and  _466
REMARK  192  A    between atoms: _466  and  _467
REMARK  193  A    between atoms: _470  and  _472
REMARK  194  A    between atoms: _472  and  _473
REMARK  195  A    between atoms: _472  and  _475
REMARK  196  A    between atoms: _475  and  _476
REMARK  197  A    between atoms: _482  and  _484
REMARK  198  A    between atoms: _484  and  _485
REMARK  199  A    between atoms: _487  and  _489
REMARK  200  A    between atoms: _489  and  _490
REMARK  201  A    between atoms: _489  and  _492
REMARK  202  A    between atoms: _492  and  _493
REMARK  203  A    between atoms: _493  and  _494
REMARK  204  A    between atoms: _494  and  _495
REMARK  205  A    between atoms: _495  and  _496
REMARK  206  A    between atoms: _500  and  _502
REMARK  207  A    between atoms: _502  and  _503
REMARK  208  A    between atoms: _505  and  _507
REMARK  209  A    between atoms: _507  and  _508
REMARK  210  A    between atoms: _507  and  _510
REMARK  211  A    between atoms: _513  and  _515
REMARK  212  A    between atoms: _515  and  _516
REMARK  213  A    between atoms: _518  and  _520
REMARK  214  A    between atoms: _520  and  _521
REMARK  215  A    between atoms: _520  and  _523
REMARK  216  A    between atoms: _523  and  _524
REMARK                            x       y       z     vdW  Elec       q    Type
REMARK                         _______ _______ _______ _____ _____    ______ ____
ROOT
ATOM      1  CB  PHE A   1      30.957  -8.217   1.247  0.00  0.00    +0.051 C 
ENDROOT
BRANCH   1   2
ATOM      2  CG  PHE A   1      29.890  -8.820   0.367  0.00  0.00    -0.020 A 
ATOM      3  CD2 PHE A   1      29.720 -10.195   0.296  0.00  0.00    -0.004 A 
ATOM      4  CE2 PHE A   1      28.741 -10.752  -0.558  0.00  0.00    -0.000 A 
ATOM      5  CZ  PHE A   1      27.950  -9.935  -1.339  0.00  0.00    -0.000 A 
ATOM      6  CE1 PHE A   1      28.112  -8.569  -1.275  0.00  0.00    -0.000 A 
ATOM      7  CD1 PHE A   1      29.085  -8.015  -0.425  0.00  0.00    -0.004 A 
ENDBRANCH   1   2
BRANCH   1   8
ATOM      8  CA  PHE A   1      32.257  -7.902   0.478  0.00  0.00    +0.137 C 
BRANCH   8   9
ATOM      9  N   PHE A   1      32.840  -9.115  -0.084  0.00  0.00    -0.239 NA
ATOM     10  H   PHE A   1      32.814  -9.982   0.489  0.00  0.00    +0.142 HD
ENDBRANCH   8   9
BRANCH   8  11
ATOM     11  C   PHE A   1      33.185  -7.098   1.378  0.00  0.00    +0.224 C 
ATOM     12  O   PHE A   1      32.913  -5.928   1.610  0.00  0.00    -0.287 OA
ENDBRANCH   8  11
ENDBRANCH   1   8
TORSDOF 4
REMARK  Name = ../refined-set-2016/4pp0/4pp0_pocket.pdb
REMARK  216 active torsions:
REMARK  status: ('A' for Active; 'I' for Inactive)
REMARK    1  A    between atoms: _1  and  _3
REMARK    2  A    between atoms: _3  and  _4
REMARK    3  A    between atoms: _3  and  _6
REMARK    4  A    between atoms: _6  and  _7
REMARK    5  A    between atoms: _10  and  _12
REMARK    6  A    between atoms: _12  and  _13
REMARK    7  A    between atoms: _12  and  _15
REMARK    8  A    between atoms: _15  and  _16
REMARK    9  A    between atoms: _16  and  _17
REMARK   10  A    between atoms: _20  and  _22
REMARK   11  A    between atoms: _22  and  _23
REMARK   12  A    between atoms: _25  and  _27
REMARK   13  A    between atoms: _27  and  _28
REMARK   14  A    between atoms: _27  and  _30
REMARK   15  A    between atoms: _30  and  _31
REMARK   16  A    between atoms: _33  and  _35
REMARK   17  A    between atoms: _35  and  _36
REMARK   18  A    between atoms: _35  and  _38
REMARK   19  A    between atoms: _38  and  _39
REMARK   20  A    between atoms: _44  and  _45
REMARK   21  A    between atoms: _47  and  _49
REMARK   22  A    between atoms: _49  and  _50
REMARK   23  A    between atoms: _53  and  _55
REMARK   24  A    between atoms: _55  and  _56
REMARK   25  A    between atoms: _55  and  _58
REMARK   26  A    between atoms: _58  and  _59
REMARK   27  A    between atoms: _64  and  _65
REMARK   28  A    between atoms: _67  and  _69
REMARK   29  A    between atoms: _69  and  _70
REMARK   30  A    between atoms: _69  and  _72
REMARK   31  A    between atoms: _72  and  _73
REMARK   32  A    between atoms: _78  and  _80
REMARK   33  A    between atoms: _80  and  _81
REMARK   34  A    between atoms: _80  and  _83
REMARK   35  A    between atoms: _83  and  _84
REMARK   36  A    between atoms: _87  and  _89
REMARK   37  A    between atoms: _89  and  _90
REMARK   38  A    between atoms: _89  and  _92
REMARK   39  A    between atoms: _92  and  _93
REMARK   40  A    between atoms: _93  and  _94
REMARK   41  A    between atoms: _99  and  _101
REMARK   42  A    between atoms: _101  and  _102
REMARK   43  A    between atoms: _101  and  _104
REMARK   44  A    between atoms: _104  and  _105
REMARK   45  A    between atoms: _115  and  _117
REMARK   46  A    between atoms: _117  and  _118
REMARK   47  A    between atoms: _117  and  _120
REMARK   48  A    between atoms: _120  and  _121
REMARK   49  A    between atoms: _124  and  _126
REMARK   50  A    between atoms: _126  and  _127
REMARK   51  A    between atoms: _126  and  _129
REMARK   52  A    between atoms: _129  and  _130
REMARK   53  A    between atoms: _133  and  _135
REMARK   54  A    between atoms: _135  and  _136
REMARK   55  A    between atoms: _135  and  _138
REMARK   56  A    between atoms: _138  and  _139
REMARK   57  A    between atoms: _139  and  _140
REMARK   58  A    between atoms: _142  and  _144
REMARK   59  A    between atoms: _144  and  _145
REMARK   60  A    between atoms: _148  and  _150
REMARK   61  A    between atoms: _150  and  _151
REMARK   62  A    between atoms: _154  and  _156
REMARK   63  A    between atoms: _156  and  _157
REMARK   64  A    between atoms: _156  and  _159
REMARK   65  A    between atoms: _159  and  _160
REMARK   66  A    between atoms: _160  and  _161
REMARK   67  A    between atoms: _163  and  _165
REMARK   68  A    between atoms: _165  and  _166
REMARK   69  A    between atoms: _168  and  _170
REMARK   70  A    between atoms: _170  and  _171
REMARK   71  A    between atoms: _170  and  _173
REMARK   72  A    between atoms: _173  and  _174
REMARK   73  A    between atoms: _177  and  _179
REMARK   74  A    between atoms: _179  and  _180
REMARK   75  A    between atoms: _179  and  _182
REMARK   76  A    between atoms: _182  and  _183
REMARK   77  A    between atoms: _183  and  _184
REMARK   78  A    between atoms: _189  and  _191
REMARK   79  A    between atoms: _191  and  _192
REMARK   80  A    between atoms: _191  and  _194
REMARK   81  A    between atoms: _194  and  _195
REMARK   82  A    between atoms: _195  and  _196
REMARK   83  A    between atoms: _196  and  _197
REMARK   84  A    between atoms: _206  and  _208
REMARK   85  A    between atoms: _208  and  _209
REMARK   86  A    between atoms: _208  and  _211
REMARK   87  A    between atoms: _211  and  _212
REMARK   88  A    between atoms: _218  and  _220
REMARK   89  A    between atoms: _220  and  _221
REMARK   90  A    between atoms: _220  and  _223
REMARK   91  A    between atoms: _223  and  _224
REMARK   92  A    between atoms: _227  and  _229
REMARK   93  A    between atoms: _229  and  _230
REMARK   94  A    between atoms: _229  and  _232
REMARK   95  A    between atoms: _232  and  _233
REMARK   96  A    between atoms: _236  and  _238
REMARK   97  A    between atoms: _238  and  _239
REMARK   98  A    between atoms: _238  and  _241
REMARK   99  A    between atoms: _241  and  _242
REMARK  100  A    between atoms: _246  and  _247
REMARK  101  A    between atoms: _252  and  _254
REMARK  102  A    between atoms: _254  and  _255
REMARK  103  A    between atoms: _254  and  _257
REMARK  104  A    between atoms: _257  and  _258
REMARK  105  A    between atoms: _263  and  _265
REMARK  106  A    between atoms: _265  and  _266
REMARK  107  A    between atoms: _265  and  _268
REMARK  108  A    between atoms: _268  and  _269
REMARK  109  A    between atoms: _272  and  _274
REMARK  110  A    between atoms: _274  and  _275
REMARK  111  A    between atoms: _274  and  _277
REMARK  112  A    between atoms: _277  and  _278
REMARK  113  A    between atoms: _278  and  _279
REMARK  114  A    between atoms: _284  and  _286
REMARK  115  A    between atoms: _286  and  _287
REMARK  116  A    between atoms: _290  and  _292
REMARK  117  A    between atoms: _292  and  _293
REMARK  118  A    between atoms: _295  and  _297
REMARK  119  A    between atoms: _297  and  _298
REMARK  120  A    between atoms: _297  and  _300
REMARK  121  A    between atoms: _300  and  _301
REMARK  122  A    between atoms: _304  and  _306
REMARK  123  A    between atoms: _306  and  _307
REMARK  124  A    between atoms: _306  and  _309
REMARK  125  A    between atoms: _309  and  _310
REMARK  126  A    between atoms: _312  and  _314
REMARK  127  A    between atoms: _314  and  _315
REMARK  128  A    between atoms: _314  and  _317
REMARK  129  A    between atoms: _317  and  _318
REMARK  130  A    between atoms: _323  and  _325
REMARK  131  A    between atoms: _325  and  _326
REMARK  132  A    between atoms: _325  and  _328
REMARK  133  A    between atoms: _328  and  _329
REMARK  134  A    between atoms: _329  and  _330
REMARK  135  A    between atoms: _333  and  _335
REMARK  136  A    between atoms: _335  and  _336
REMARK  137  A    between atoms: _339  and  _341
REMARK  138  A    between atoms: _341  and  _342
REMARK  139  A    between atoms: _341  and  _344
REMARK  140  A    between atoms: _344  and  _345
REMARK  141  A    between atoms: _351  and  _353
REMARK  142  A    between atoms: _353  and  _354
REMARK  143  A    between atoms: _353  and  _356
REMARK  144  A    between atoms: _356  and  _357
REMARK  145  A    between atoms: _360  and  _362
REMARK  146  A    between atoms: _362  and  _363
REMARK  147  A    between atoms: _362  and  _365
REMARK  148  A    between atoms: _365  and  _366
REMARK  149  A    between atoms: _369  and  _371
REMARK  150  A    between atoms: _371  and  _372
REMARK  151  A    between atoms: _371  and  _374
REMARK  152  A    between atoms: _374  and  _375
REMARK  153  A    between atoms: _378  and  _380
REMARK  154  A    between atoms: _380  and  _381
REMARK  155  A    between atoms: _380  and  _383
REMARK  156  A    between atoms: _383  and  _384
REMARK  157  A    between atoms: _387  and  _389
REMARK  158  A    between atoms: _389  and  _390
REMARK  159  A    between atoms: _389  and  _392
REMARK  160  A    between atoms: _392  and  _393
REMARK  161  A    between atoms: _396  and  _398
REMARK  162  A    between atoms: _398  and  _399
REMARK  163  A    between atoms: _402  and  _404
REMARK  164  A    between atoms: _404  and  _405
REMARK  165  A    between atoms: _404  and  _407
REMARK  166  A    between atoms: _407  and  _408
REMARK  167  A    between atoms: _410  and  _412
REMARK  168  A    between atoms: _412  and  _413
REMARK  169  A    between atoms: _412  and  _415
REMARK  170  A    between atoms: _418  and  _420
REMARK  171  A    between atoms: _420  and  _421
REMARK  172  A    between atoms: _420  and  _423
REMARK  173  A    between atoms: _423  and  _424
REMARK  174  A    between atoms: _426  and  _428
REMARK  175  A    between atoms: _428  and  _429
REMARK  176  A    between atoms: _428  and  _431
REMARK  177  A    between atoms: _431  and  _432
REMARK  178  A    between atoms: _438  and  _440
REMARK  179  A    between atoms: _440  and  _441
REMARK  180  A    between atoms: _440  and  _443
REMARK  181  A    between atoms: _443  and  _444
REMARK  182  A    between atoms: _447  and  _449
REMARK  183  A    between atoms: _449  and  _450
REMARK  184  A    between atoms: _449  and  _452
REMARK  185  A    between atoms: _452  and  _453
REMARK  186  A    between atoms: _453  and  _454
REMARK  187  A    between atoms: _456  and  _458
REMARK  188  A    between atoms: _458  and  _459
REMARK  189  A    between atoms: _461  and  _463
REMARK  190  A    between atoms: _463  and  _464
REMARK  191  A    between atoms: _463  and  _466
REMARK  192  A    between atoms: _466  and  _467
REMARK  193  A    between atoms: _470  and  _472
REMARK  194  A    between atoms: _472  and  _473
REMARK  195  A    between atoms: _472  and  _475
REMARK  196  A    between atoms: _475  and  _476
REMARK  197  A    between atoms: _482  and  _484
REMARK  198  A    between atoms: _484  and  _485
REMARK  199  A    between atoms: _487  and  _489
REMARK  200  A    between atoms: _489  and  _490
REMARK  201  A    between atoms: _489  and  _492
REMARK  202  A    between atoms: _492  and  _493
REMARK  203  A    between atoms: _493  and  _494
REMARK  204  A    between atoms: _494  and  _495
REMARK  205  A    between atoms: _495  and  _496
REMARK  206  A    between atoms: _500  and  _502
REMARK  207  A    between atoms: _502  and  _503
REMARK  208  A    between atoms: _505  and  _507
REMARK  209  A    between atoms: _507  and  _508
REMARK  210  A    between atoms: _507  and  _510
REMARK  211  A    between atoms: _513  and  _515
REMARK  212  A    between atoms: _515  and  _516
REMARK  213  A    between atoms: _518  and  _520
REMARK  214  A    between atoms: _520  and  _521
REMARK  215  A    between atoms: _520  and  _523
REMARK  216  A    between atoms: _523  and  _524
REMARK                            x       y       z     vdW  Elec       q    Type
REMARK                         _______ _______ _______ _____ _____    ______ ____
ROOT
ATOM      1  O   HOH     1      18.400  -8.962   5.217  0.00  0.00    +0.000 OA
ENDROOT
TORSDOF 0
REMARK  Name = ../refined-set-2016/4pp0/4pp0_pocket.pdb
REMARK  216 active torsions:
REMARK  status: ('A' for Active; 'I' for Inactive)
REMARK    1  A    between atoms: _1  and  _3
REMARK    2  A    between atoms: _3  and  _4
REMARK    3  A    between atoms: _3  and  _6
REMARK    4  A    between atoms: _6  and  _7
REMARK    5  A    between atoms: _10  and  _12
REMARK    6  A    between atoms: _12  and  _13
REMARK    7  A    between atoms: _12  and  _15
REMARK    8  A    between atoms: _15  and  _16
REMARK    9  A    between atoms: _16  and  _17
REMARK   10  A    between atoms: _20  and  _22
REMARK   11  A    between atoms: _22  and  _23
REMARK   12  A    between atoms: _25  and  _27
REMARK   13  A    between atoms: _27  and  _28
REMARK   14  A    between atoms: _27  and  _30
REMARK   15  A    between atoms: _30  and  _31
REMARK   16  A    between atoms: _33  and  _35
REMARK   17  A    between atoms: _35  and  _36
REMARK   18  A    between atoms: _35  and  _38
REMARK   19  A    between atoms: _38  and  _39
REMARK   20  A    between atoms: _44  and  _45
REMARK   21  A    between atoms: _47  and  _49
REMARK   22  A    between atoms: _49  and  _50
REMARK   23  A    between atoms: _53  and  _55
REMARK   24  A    between atoms: _55  and  _56
REMARK   25  A    between atoms: _55  and  _58
REMARK   26  A    between atoms: _58  and  _59
REMARK   27  A    between atoms: _64  and  _65
REMARK   28  A    between atoms: _67  and  _69
REMARK   29  A    between atoms: _69  and  _70
REMARK   30  A    between atoms: _69  and  _72
REMARK   31  A    between atoms: _72  and  _73
REMARK   32  A    between atoms: _78  and  _80
REMARK   33  A    between atoms: _80  and  _81
REMARK   34  A    between atoms: _80  and  _83
REMARK   35  A    between atoms: _83  and  _84
REMARK   36  A    between atoms: _87  and  _89
REMARK   37  A    between atoms: _89  and  _90
REMARK   38  A    between atoms: _89  and  _92
REMARK   39  A    between atoms: _92  and  _93
REMARK   40  A    between atoms: _93  and  _94
REMARK   41  A    between atoms: _99  and  _101
REMARK   42  A    between atoms: _101  and  _102
REMARK   43  A    between atoms: _101  and  _104
REMARK   44  A    between atoms: _104  and  _105
REMARK   45  A    between atoms: _115  and  _117
REMARK   46  A    between atoms: _117  and  _118
REMARK   47  A    between atoms: _117  and  _120
REMARK   48  A    between atoms: _120  and  _121
REMARK   49  A    between atoms: _124  and  _126
REMARK   50  A    between atoms: _126  and  _127
REMARK   51  A    between atoms: _126  and  _129
REMARK   52  A    between atoms: _129  and  _130
REMARK   53  A    between atoms: _133  and  _135
REMARK   54  A    between atoms: _135  and  _136
REMARK   55  A    between atoms: _135  and  _138
REMARK   56  A    between atoms: _138  and  _139
REMARK   57  A    between atoms: _139  and  _140
REMARK   58  A    between atoms: _142  and  _144
REMARK   59  A    between atoms: _144  and  _145
REMARK   60  A    between atoms: _148  and  _150
REMARK   61  A    between atoms: _150  and  _151
REMARK   62  A    between atoms: _154  and  _156
REMARK   63  A    between atoms: _156  and  _157
REMARK   64  A    between atoms: _156  and  _159
REMARK   65  A    between atoms: _159  and  _160
REMARK   66  A    between atoms: _160  and  _161
REMARK   67  A    between atoms: _163  and  _165
REMARK   68  A    between atoms: _165  and  _166
REMARK   69  A    between atoms: _168  and  _170
REMARK   70  A    between atoms: _170  and  _171
REMARK   71  A    between atoms: _170  and  _173
REMARK   72  A    between atoms: _173  and  _174
REMARK   73  A    between atoms: _177  and  _179
REMARK   74  A    between atoms: _179  and  _180
REMARK   75  A    between atoms: _179  and  _182
REMARK   76  A    between atoms: _182  and  _183
REMARK   77  A    between atoms: _183  and  _184
REMARK   78  A    between atoms: _189  and  _191
REMARK   79  A    between atoms: _191  and  _192
REMARK   80  A    between atoms: _191  and  _194
REMARK   81  A    between atoms: _194  and  _195
REMARK   82  A    between atoms: _195  and  _196
REMARK   83  A    between atoms: _196  and  _197
REMARK   84  A    between atoms: _206  and  _208
REMARK   85  A    between atoms: _208  and  _209
REMARK   86  A    between atoms: _208  and  _211
REMARK   87  A    between atoms: _211  and  _212
REMARK   88  A    between atoms: _218  and  _220
REMARK   89  A    between atoms: _220  and  _221
REMARK   90  A    between atoms: _220  and  _223
REMARK   91  A    between atoms: _223  and  _224
REMARK   92  A    between atoms: _227  and  _229
REMARK   93  A    between atoms: _229  and  _230
REMARK   94  A    between atoms: _229  and  _232
REMARK   95  A    between atoms: _232  and  _233
REMARK   96  A    between atoms: _236  and  _238
REMARK   97  A    between atoms: _238  and  _239
REMARK   98  A    between atoms: _238  and  _241
REMARK   99  A    between atoms: _241  and  _242
REMARK  100  A    between atoms: _246  and  _247
REMARK  101  A    between atoms: _252  and  _254
REMARK  102  A    between atoms: _254  and  _255
REMARK  103  A    between atoms: _254  and  _257
REMARK  104  A    between atoms: _257  and  _258
REMARK  105  A    between atoms: _263  and  _265
REMARK  106  A    between atoms: _265  and  _266
REMARK  107  A    between atoms: _265  and  _268
REMARK  108  A    between atoms: _268  and  _269
REMARK  109  A    between atoms: _272  and  _274
REMARK  110  A    between atoms: _274  and  _275
REMARK  111  A    between atoms: _274  and  _277
REMARK  112  A    between atoms: _277  and  _278
REMARK  113  A    between atoms: _278  and  _279
REMARK  114  A    between atoms: _284  and  _286
REMARK  115  A    between atoms: _286  and  _287
REMARK  116  A    between atoms: _290  and  _292
REMARK  117  A    between atoms: _292  and  _293
REMARK  118  A    between atoms: _295  and  _297
REMARK  119  A    between atoms: _297  and  _298
REMARK  120  A    between atoms: _297  and  _300
REMARK  121  A    between atoms: _300  and  _301
REMARK  122  A    between atoms: _304  and  _306
REMARK  123  A    between atoms: _306  and  _307
REMARK  124  A    between atoms: _306  and  _309
REMARK  125  A    between atoms: _309  and  _310
REMARK  126  A    between atoms: _312  and  _314
REMARK  127  A    between atoms: _314  and  _315
REMARK  128  A    between atoms: _314  and  _317
REMARK  129  A    between atoms: _317  and  _318
REMARK  130  A    between atoms: _323  and  _325
REMARK  131  A    between atoms: _325  and  _326
REMARK  132  A    between atoms: _325  and  _328
REMARK  133  A    between atoms: _328  and  _329
REMARK  134  A    between atoms: _329  and  _330
REMARK  135  A    between atoms: _333  and  _335
REMARK  136  A    between atoms: _335  and  _336
REMARK  137  A    between atoms: _339  and  _341
REMARK  138  A    between atoms: _341  and  _342
REMARK  139  A    between atoms: _341  and  _344
REMARK  140  A    between atoms: _344  and  _345
REMARK  141  A    between atoms: _351  and  _353
REMARK  142  A    between atoms: _353  and  _354
REMARK  143  A    between atoms: _353  and  _356
REMARK  144  A    between atoms: _356  and  _357
REMARK  145  A    between atoms: _360  and  _362
REMARK  146  A    between atoms: _362  and  _363
REMARK  147  A    between atoms: _362  and  _365
REMARK  148  A    between atoms: _365  and  _366
REMARK  149  A    between atoms: _369  and  _371
REMARK  150  A    between atoms: _371  and  _372
REMARK  151  A    between atoms: _371  and  _374
REMARK  152  A    between atoms: _374  and  _375
REMARK  153  A    between atoms: _378  and  _380
REMARK  154  A    between atoms: _380  and  _381
REMARK  155  A    between atoms: _380  and  _383
REMARK  156  A    between atoms: _383  and  _384
REMARK  157  A    between atoms: _387  and  _389
REMARK  158  A    between atoms: _389  and  _390
REMARK  159  A    between atoms: _389  and  _392
REMARK  160  A    between atoms: _392  and  _393
REMARK  161  A    between atoms: _396  and  _398
REMARK  162  A    between atoms: _398  and  _399
REMARK  163  A    between atoms: _402  and  _404
REMARK  164  A    between atoms: _404  and  _405
REMARK  165  A    between atoms: _404  and  _407
REMARK  166  A    between atoms: _407  and  _408
REMARK  167  A    between atoms: _410  and  _412
REMARK  168  A    between atoms: _412  and  _413
REMARK  169  A    between atoms: _412  and  _415
REMARK  170  A    between atoms: _418  and  _420
REMARK  171  A    between atoms: _420  and  _421
REMARK  172  A    between atoms: _420  and  _423
REMARK  173  A    between atoms: _423  and  _424
REMARK  174  A    between atoms: _426  and  _428
REMARK  175  A    between atoms: _428  and  _429
REMARK  176  A    between atoms: _428  and  _431
REMARK  177  A    between atoms: _431  and  _432
REMARK  178  A    between atoms: _438  and  _440
REMARK  179  A    between atoms: _440  and  _441
REMARK  180  A    between atoms: _440  and  _443
REMARK  181  A    between atoms: _443  and  _444
REMARK  182  A    between atoms: _447  and  _449
REMARK  183  A    between atoms: _449  and  _450
REMARK  184  A    between atoms: _449  and  _452
REMARK  185  A    between atoms: _452  and  _453
REMARK  186  A    between atoms: _453  and  _454
REMARK  187  A    between atoms: _456  and  _458
REMARK  188  A    between atoms: _458  and  _459
REMARK  189  A    between atoms: _461  and  _463
REMARK  190  A    between atoms: _463  and  _464
REMARK  191  A    between atoms: _463  and  _466
REMARK  192  A    between atoms: _466  and  _467
REMARK  193  A    between atoms: _470  and  _472
REMARK  194  A    between atoms: _472  and  _473
REMARK  195  A    between atoms: _472  and  _475
REMARK  196  A    between atoms: _475  and  _476
REMARK  197  A    between atoms: _482  and  _484
REMARK  198  A    between atoms: _484  and  _485
REMARK  199  A    between atoms: _487  and  _489
REMARK  200  A    between atoms: _489  and  _490
REMARK  201  A    between atoms: _489  and  _492
REMARK  202  A    between atoms: _492  and  _493
REMARK  203  A    between atoms: _493  and  _494
REMARK  204  A    between atoms: _494  and  _495
REMARK  205  A    between atoms: _495  and  _496
REMARK  206  A    between atoms: _500  and  _502
REMARK  207  A    between atoms: _502  and  _503
REMARK  208  A    between atoms: _505  and  _507
REMARK  209  A    between atoms: _507  and  _508
REMARK  210  A    between atoms: _507  and  _510
REMARK  211  A    between atoms: _513  and  _515
REMARK  212  A    between atoms: _515  and  _516
REMARK  213  A    between atoms: _518  and  _520
REMARK  214  A    between atoms: _520  and  _521
REMARK  215  A    between atoms: _520  and  _523
REMARK  216  A    between atoms: _523  and  _524
REMARK                            x       y       z     vdW  Elec       q    Type
REMARK                         _______ _______ _______ _____ _____    ______ ____
ROOT
ATOM      1  O   HOH     1      14.267  -7.503  -1.184  0.00  0.00    +0.000 OA
ENDROOT
TORSDOF 0
REMARK  Name = ../refined-set-2016/4pp0/4pp0_pocket.pdb
REMARK  216 active torsions:
REMARK  status: ('A' for Active; 'I' for Inactive)
REMARK    1  A    between atoms: _1  and  _3
REMARK    2  A    between atoms: _3  and  _4
REMARK    3  A    between atoms: _3  and  _6
REMARK    4  A    between atoms: _6  and  _7
REMARK    5  A    between atoms: _10  and  _12
REMARK    6  A    between atoms: _12  and  _13
REMARK    7  A    between atoms: _12  and  _15
REMARK    8  A    between atoms: _15  and  _16
REMARK    9  A    between atoms: _16  and  _17
REMARK   10  A    between atoms: _20  and  _22
REMARK   11  A    between atoms: _22  and  _23
REMARK   12  A    between atoms: _25  and  _27
REMARK   13  A    between atoms: _27  and  _28
REMARK   14  A    between atoms: _27  and  _30
REMARK   15  A    between atoms: _30  and  _31
REMARK   16  A    between atoms: _33  and  _35
REMARK   17  A    between atoms: _35  and  _36
REMARK   18  A    between atoms: _35  and  _38
REMARK   19  A    between atoms: _38  and  _39
REMARK   20  A    between atoms: _44  and  _45
REMARK   21  A    between atoms: _47  and  _49
REMARK   22  A    between atoms: _49  and  _50
REMARK   23  A    between atoms: _53  and  _55
REMARK   24  A    between atoms: _55  and  _56
REMARK   25  A    between atoms: _55  and  _58
REMARK   26  A    between atoms: _58  and  _59
REMARK   27  A    between atoms: _64  and  _65
REMARK   28  A    between atoms: _67  and  _69
REMARK   29  A    between atoms: _69  and  _70
REMARK   30  A    between atoms: _69  and  _72
REMARK   31  A    between atoms: _72  and  _73
REMARK   32  A    between atoms: _78  and  _80
REMARK   33  A    between atoms: _80  and  _81
REMARK   34  A    between atoms: _80  and  _83
REMARK   35  A    between atoms: _83  and  _84
REMARK   36  A    between atoms: _87  and  _89
REMARK   37  A    between atoms: _89  and  _90
REMARK   38  A    between atoms: _89  and  _92
REMARK   39  A    between atoms: _92  and  _93
REMARK   40  A    between atoms: _93  and  _94
REMARK   41  A    between atoms: _99  and  _101
REMARK   42  A    between atoms: _101  and  _102
REMARK   43  A    between atoms: _101  and  _104
REMARK   44  A    between atoms: _104  and  _105
REMARK   45  A    between atoms: _115  and  _117
REMARK   46  A    between atoms: _117  and  _118
REMARK   47  A    between atoms: _117  and  _120
REMARK   48  A    between atoms: _120  and  _121
REMARK   49  A    between atoms: _124  and  _126
REMARK   50  A    between atoms: _126  and  _127
REMARK   51  A    between atoms: _126  and  _129
REMARK   52  A    between atoms: _129  and  _130
REMARK   53  A    between atoms: _133  and  _135
REMARK   54  A    between atoms: _135  and  _136
REMARK   55  A    between atoms: _135  and  _138
REMARK   56  A    between atoms: _138  and  _139
REMARK   57  A    between atoms: _139  and  _140
REMARK   58  A    between atoms: _142  and  _144
REMARK   59  A    between atoms: _144  and  _145
REMARK   60  A    between atoms: _148  and  _150
REMARK   61  A    between atoms: _150  and  _151
REMARK   62  A    between atoms: _154  and  _156
REMARK   63  A    between atoms: _156  and  _157
REMARK   64  A    between atoms: _156  and  _159
REMARK   65  A    between atoms: _159  and  _160
REMARK   66  A    between atoms: _160  and  _161
REMARK   67  A    between atoms: _163  and  _165
REMARK   68  A    between atoms: _165  and  _166
REMARK   69  A    between atoms: _168  and  _170
REMARK   70  A    between atoms: _170  and  _171
REMARK   71  A    between atoms: _170  and  _173
REMARK   72  A    between atoms: _173  and  _174
REMARK   73  A    between atoms: _177  and  _179
REMARK   74  A    between atoms: _179  and  _180
REMARK   75  A    between atoms: _179  and  _182
REMARK   76  A    between atoms: _182  and  _183
REMARK   77  A    between atoms: _183  and  _184
REMARK   78  A    between atoms: _189  and  _191
REMARK   79  A    between atoms: _191  and  _192
REMARK   80  A    between atoms: _191  and  _194
REMARK   81  A    between atoms: _194  and  _195
REMARK   82  A    between atoms: _195  and  _196
REMARK   83  A    between atoms: _196  and  _197
REMARK   84  A    between atoms: _206  and  _208
REMARK   85  A    between atoms: _208  and  _209
REMARK   86  A    between atoms: _208  and  _211
REMARK   87  A    between atoms: _211  and  _212
REMARK   88  A    between atoms: _218  and  _220
REMARK   89  A    between atoms: _220  and  _221
REMARK   90  A    between atoms: _220  and  _223
REMARK   91  A    between atoms: _223  and  _224
REMARK   92  A    between atoms: _227  and  _229
REMARK   93  A    between atoms: _229  and  _230
REMARK   94  A    between atoms: _229  and  _232
REMARK   95  A    between atoms: _232  and  _233
REMARK   96  A    between atoms: _236  and  _238
REMARK   97  A    between atoms: _238  and  _239
REMARK   98  A    between atoms: _238  and  _241
REMARK   99  A    between atoms: _241  and  _242
REMARK  100  A    between atoms: _246  and  _247
REMARK  101  A    between atoms: _252  and  _254
REMARK  102  A    between atoms: _254  and  _255
REMARK  103  A    between atoms: _254  and  _257
REMARK  104  A    between atoms: _257  and  _258
REMARK  105  A    between atoms: _263  and  _265
REMARK  106  A    between atoms: _265  and  _266
REMARK  107  A    between atoms: _265  and  _268
REMARK  108  A    between atoms: _268  and  _269
REMARK  109  A    between atoms: _272  and  _274
REMARK  110  A    between atoms: _274  and  _275
REMARK  111  A    between atoms: _274  and  _277
REMARK  112  A    between atoms: _277  and  _278
REMARK  113  A    between atoms: _278  and  _279
REMARK  114  A    between atoms: _284  and  _286
REMARK  115  A    between atoms: _286  and  _287
REMARK  116  A    between atoms: _290  and  _292
REMARK  117  A    between atoms: _292  and  _293
REMARK  118  A    between atoms: _295  and  _297
REMARK  119  A    between atoms: _297  and  _298
REMARK  120  A    between atoms: _297  and  _300
REMARK  121  A    between atoms: _300  and  _301
REMARK  122  A    between atoms: _304  and  _306
REMARK  123  A    between atoms: _306  and  _307
REMARK  124  A    between atoms: _306  and  _309
REMARK  125  A    between atoms: _309  and  _310
REMARK  126  A    between atoms: _312  and  _314
REMARK  127  A    between atoms: _314  and  _315
REMARK  128  A    between atoms: _314  and  _317
REMARK  129  A    between atoms: _317  and  _318
REMARK  130  A    between atoms: _323  and  _325
REMARK  131  A    between atoms: _325  and  _326
REMARK  132  A    between atoms: _325  and  _328
REMARK  133  A    between atoms: _328  and  _329
REMARK  134  A    between atoms: _329  and  _330
REMARK  135  A    between atoms: _333  and  _335
REMARK  136  A    between atoms: _335  and  _336
REMARK  137  A    between atoms: _339  and  _341
REMARK  138  A    between atoms: _341  and  _342
REMARK  139  A    between atoms: _341  and  _344
REMARK  140  A    between atoms: _344  and  _345
REMARK  141  A    between atoms: _351  and  _353
REMARK  142  A    between atoms: _353  and  _354
REMARK  143  A    between atoms: _353  and  _356
REMARK  144  A    between atoms: _356  and  _357
REMARK  145  A    between atoms: _360  and  _362
REMARK  146  A    between atoms: _362  and  _363
REMARK  147  A    between atoms: _362  and  _365
REMARK  148  A    between atoms: _365  and  _366
REMARK  149  A    between atoms: _369  and  _371
REMARK  150  A    between atoms: _371  and  _372
REMARK  151  A    between atoms: _371  and  _374
REMARK  152  A    between atoms: _374  and  _375
REMARK  153  A    between atoms: _378  and  _380
REMARK  154  A    between atoms: _380  and  _381
REMARK  155  A    between atoms: _380  and  _383
REMARK  156  A    between atoms: _383  and  _384
REMARK  157  A    between atoms: _387  and  _389
REMARK  158  A    between atoms: _389  and  _390
REMARK  159  A    between atoms: _389  and  _392
REMARK  160  A    between atoms: _392  and  _393
REMARK  161  A    between atoms: _396  and  _398
REMARK  162  A    between atoms: _398  and  _399
REMARK  163  A    between atoms: _402  and  _404
REMARK  164  A    between atoms: _404  and  _405
REMARK  165  A    between atoms: _404  and  _407
REMARK  166  A    between atoms: _407  and  _408
REMARK  167  A    between atoms: _410  and  _412
REMARK  168  A    between atoms: _412  and  _413
REMARK  169  A    between atoms: _412  and  _415
REMARK  170  A    between atoms: _418  and  _420
REMARK  171  A    between atoms: _420  and  _421
REMARK  172  A    between atoms: _420  and  _423
REMARK  173  A    between atoms: _423  and  _424
REMARK  174  A    between atoms: _426  and  _428
REMARK  175  A    between atoms: _428  and  _429
REMARK  176  A    between atoms: _428  and  _431
REMARK  177  A    between atoms: _431  and  _432
REMARK  178  A    between atoms: _438  and  _440
REMARK  179  A    between atoms: _440  and  _441
REMARK  180  A    between atoms: _440  and  _443
REMARK  181  A    between atoms: _443  and  _444
REMARK  182  A    between atoms: _447  and  _449
REMARK  183  A    between atoms: _449  and  _450
REMARK  184  A    between atoms: _449  and  _452
REMARK  185  A    between atoms: _452  and  _453
REMARK  186  A    between atoms: _453  and  _454
REMARK  187  A    between atoms: _456  and  _458
REMARK  188  A    between atoms: _458  and  _459
REMARK  189  A    between atoms: _461  and  _463
REMARK  190  A    between atoms: _463  and  _464
REMARK  191  A    between atoms: _463  and  _466
REMARK  192  A    between atoms: _466  and  _467
REMARK  193  A    between atoms: _470  and  _472
REMARK  194  A    between atoms: _472  and  _473
REMARK  195  A    between atoms: _472  and  _475
REMARK  196  A    between atoms: _475  and  _476
REMARK  197  A    between atoms: _482  and  _484
REMARK  198  A    between atoms: _484  and  _485
REMARK  199  A    between atoms: _487  and  _489
REMARK  200  A    between atoms: _489  and  _490
REMARK  201  A    between atoms: _489  and  _492
REMARK  202  A    between atoms: _492  and  _493
REMARK  203  A    between atoms: _493  and  _494
REMARK  204  A    between atoms: _494  and  _495
REMARK  205  A    between atoms: _495  and  _496
REMARK  206  A    between atoms: _500  and  _502
REMARK  207  A    between atoms: _502  and  _503
REMARK  208  A    between atoms: _505  and  _507
REMARK  209  A    between atoms: _507  and  _508
REMARK  210  A    between atoms: _507  and  _510
REMARK  211  A    between atoms: _513  and  _515
REMARK  212  A    between atoms: _515  and  _516
REMARK  213  A    between atoms: _518  and  _520
REMARK  214  A    between atoms: _520  and  _521
REMARK  215  A    between atoms: _520  and  _523
REMARK  216  A    between atoms: _523  and  _524
REMARK                            x       y       z     vdW  Elec       q    Type
REMARK                         _______ _______ _______ _____ _____    ______ ____
ROOT
ATOM      1  O   HOH     1      18.720   0.181  -6.869  0.00  0.00    +0.000 OA
ENDROOT
TORSDOF 0
REMARK  Name = ../refined-set-2016/4pp0/4pp0_pocket.pdb
REMARK  216 active torsions:
REMARK  status: ('A' for Active; 'I' for Inactive)
REMARK    1  A    between atoms: _1  and  _3
REMARK    2  A    between atoms: _3  and  _4
REMARK    3  A    between atoms: _3  and  _6
REMARK    4  A    between atoms: _6  and  _7
REMARK    5  A    between atoms: _10  and  _12
REMARK    6  A    between atoms: _12  and  _13
REMARK    7  A    between atoms: _12  and  _15
REMARK    8  A    between atoms: _15  and  _16
REMARK    9  A    between atoms: _16  and  _17
REMARK   10  A    between atoms: _20  and  _22
REMARK   11  A    between atoms: _22  and  _23
REMARK   12  A    between atoms: _25  and  _27
REMARK   13  A    between atoms: _27  and  _28
REMARK   14  A    between atoms: _27  and  _30
REMARK   15  A    between atoms: _30  and  _31
REMARK   16  A    between atoms: _33  and  _35
REMARK   17  A    between atoms: _35  and  _36
REMARK   18  A    between atoms: _35  and  _38
REMARK   19  A    between atoms: _38  and  _39
REMARK   20  A    between atoms: _44  and  _45
REMARK   21  A    between atoms: _47  and  _49
REMARK   22  A    between atoms: _49  and  _50
REMARK   23  A    between atoms: _53  and  _55
REMARK   24  A    between atoms: _55  and  _56
REMARK   25  A    between atoms: _55  and  _58
REMARK   26  A    between atoms: _58  and  _59
REMARK   27  A    between atoms: _64  and  _65
REMARK   28  A    between atoms: _67  and  _69
REMARK   29  A    between atoms: _69  and  _70
REMARK   30  A    between atoms: _69  and  _72
REMARK   31  A    between atoms: _72  and  _73
REMARK   32  A    between atoms: _78  and  _80
REMARK   33  A    between atoms: _80  and  _81
REMARK   34  A    between atoms: _80  and  _83
REMARK   35  A    between atoms: _83  and  _84
REMARK   36  A    between atoms: _87  and  _89
REMARK   37  A    between atoms: _89  and  _90
REMARK   38  A    between atoms: _89  and  _92
REMARK   39  A    between atoms: _92  and  _93
REMARK   40  A    between atoms: _93  and  _94
REMARK   41  A    between atoms: _99  and  _101
REMARK   42  A    between atoms: _101  and  _102
REMARK   43  A    between atoms: _101  and  _104
REMARK   44  A    between atoms: _104  and  _105
REMARK   45  A    between atoms: _115  and  _117
REMARK   46  A    between atoms: _117  and  _118
REMARK   47  A    between atoms: _117  and  _120
REMARK   48  A    between atoms: _120  and  _121
REMARK   49  A    between atoms: _124  and  _126
REMARK   50  A    between atoms: _126  and  _127
REMARK   51  A    between atoms: _126  and  _129
REMARK   52  A    between atoms: _129  and  _130
REMARK   53  A    between atoms: _133  and  _135
REMARK   54  A    between atoms: _135  and  _136
REMARK   55  A    between atoms: _135  and  _138
REMARK   56  A    between atoms: _138  and  _139
REMARK   57  A    between atoms: _139  and  _140
REMARK   58  A    between atoms: _142  and  _144
REMARK   59  A    between atoms: _144  and  _145
REMARK   60  A    between atoms: _148  and  _150
REMARK   61  A    between atoms: _150  and  _151
REMARK   62  A    between atoms: _154  and  _156
REMARK   63  A    between atoms: _156  and  _157
REMARK   64  A    between atoms: _156  and  _159
REMARK   65  A    between atoms: _159  and  _160
REMARK   66  A    between atoms: _160  and  _161
REMARK   67  A    between atoms: _163  and  _165
REMARK   68  A    between atoms: _165  and  _166
REMARK   69  A    between atoms: _168  and  _170
REMARK   70  A    between atoms: _170  and  _171
REMARK   71  A    between atoms: _170  and  _173
REMARK   72  A    between atoms: _173  and  _174
REMARK   73  A    between atoms: _177  and  _179
REMARK   74  A    between atoms: _179  and  _180
REMARK   75  A    between atoms: _179  and  _182
REMARK   76  A    between atoms: _182  and  _183
REMARK   77  A    between atoms: _183  and  _184
REMARK   78  A    between atoms: _189  and  _191
REMARK   79  A    between atoms: _191  and  _192
REMARK   80  A    between atoms: _191  and  _194
REMARK   81  A    between atoms: _194  and  _195
REMARK   82  A    between atoms: _195  and  _196
REMARK   83  A    between atoms: _196  and  _197
REMARK   84  A    between atoms: _206  and  _208
REMARK   85  A    between atoms: _208  and  _209
REMARK   86  A    between atoms: _208  and  _211
REMARK   87  A    between atoms: _211  and  _212
REMARK   88  A    between atoms: _218  and  _220
REMARK   89  A    between atoms: _220  and  _221
REMARK   90  A    between atoms: _220  and  _223
REMARK   91  A    between atoms: _223  and  _224
REMARK   92  A    between atoms: _227  and  _229
REMARK   93  A    between atoms: _229  and  _230
REMARK   94  A    between atoms: _229  and  _232
REMARK   95  A    between atoms: _232  and  _233
REMARK   96  A    between atoms: _236  and  _238
REMARK   97  A    between atoms: _238  and  _239
REMARK   98  A    between atoms: _238  and  _241
REMARK   99  A    between atoms: _241  and  _242
REMARK  100  A    between atoms: _246  and  _247
REMARK  101  A    between atoms: _252  and  _254
REMARK  102  A    between atoms: _254  and  _255
REMARK  103  A    between atoms: _254  and  _257
REMARK  104  A    between atoms: _257  and  _258
REMARK  105  A    between atoms: _263  and  _265
REMARK  106  A    between atoms: _265  and  _266
REMARK  107  A    between atoms: _265  and  _268
REMARK  108  A    between atoms: _268  and  _269
REMARK  109  A    between atoms: _272  and  _274
REMARK  110  A    between atoms: _274  and  _275
REMARK  111  A    between atoms: _274  and  _277
REMARK  112  A    between atoms: _277  and  _278
REMARK  113  A    between atoms: _278  and  _279
REMARK  114  A    between atoms: _284  and  _286
REMARK  115  A    between atoms: _286  and  _287
REMARK  116  A    between atoms: _290  and  _292
REMARK  117  A    between atoms: _292  and  _293
REMARK  118  A    between atoms: _295  and  _297
REMARK  119  A    between atoms: _297  and  _298
REMARK  120  A    between atoms: _297  and  _300
REMARK  121  A    between atoms: _300  and  _301
REMARK  122  A    between atoms: _304  and  _306
REMARK  123  A    between atoms: _306  and  _307
REMARK  124  A    between atoms: _306  and  _309
REMARK  125  A    between atoms: _309  and  _310
REMARK  126  A    between atoms: _312  and  _314
REMARK  127  A    between atoms: _314  and  _315
REMARK  128  A    between atoms: _314  and  _317
REMARK  129  A    between atoms: _317  and  _318
REMARK  130  A    between atoms: _323  and  _325
REMARK  131  A    between atoms: _325  and  _326
REMARK  132  A    between atoms: _325  and  _328
REMARK  133  A    between atoms: _328  and  _329
REMARK  134  A    between atoms: _329  and  _330
REMARK  135  A    between atoms: _333  and  _335
REMARK  136  A    between atoms: _335  and  _336
REMARK  137  A    between atoms: _339  and  _341
REMARK  138  A    between atoms: _341  and  _342
REMARK  139  A    between atoms: _341  and  _344
REMARK  140  A    between atoms: _344  and  _345
REMARK  141  A    between atoms: _351  and  _353
REMARK  142  A    between atoms: _353  and  _354
REMARK  143  A    between atoms: _353  and  _356
REMARK  144  A    between atoms: _356  and  _357
REMARK  145  A    between atoms: _360  and  _362
REMARK  146  A    between atoms: _362  and  _363
REMARK  147  A    between atoms: _362  and  _365
REMARK  148  A    between atoms: _365  and  _366
REMARK  149  A    between atoms: _369  and  _371
REMARK  150  A    between atoms: _371  and  _372
REMARK  151  A    between atoms: _371  and  _374
REMARK  152  A    between atoms: _374  and  _375
REMARK  153  A    between atoms: _378  and  _380
REMARK  154  A    between atoms: _380  and  _381
REMARK  155  A    between atoms: _380  and  _383
REMARK  156  A    between atoms: _383  and  _384
REMARK  157  A    between atoms: _387  and  _389
REMARK  158  A    between atoms: _389  and  _390
REMARK  159  A    between atoms: _389  and  _392
REMARK  160  A    between atoms: _392  and  _393
REMARK  161  A    between atoms: _396  and  _398
REMARK  162  A    between atoms: _398  and  _399
REMARK  163  A    between atoms: _402  and  _404
REMARK  164  A    between atoms: _404  and  _405
REMARK  165  A    between atoms: _404  and  _407
REMARK  166  A    between atoms: _407  and  _408
REMARK  167  A    between atoms: _410  and  _412
REMARK  168  A    between atoms: _412  and  _413
REMARK  169  A    between atoms: _412  and  _415
REMARK  170  A    between atoms: _418  and  _420
REMARK  171  A    between atoms: _420  and  _421
REMARK  172  A    between atoms: _420  and  _423
REMARK  173  A    between atoms: _423  and  _424
REMARK  174  A    between atoms: _426  and  _428
REMARK  175  A    between atoms: _428  and  _429
REMARK  176  A    between atoms: _428  and  _431
REMARK  177  A    between atoms: _431  and  _432
REMARK  178  A    between atoms: _438  and  _440
REMARK  179  A    between atoms: _440  and  _441
REMARK  180  A    between atoms: _440  and  _443
REMARK  181  A    between atoms: _443  and  _444
REMARK  182  A    between atoms: _447  and  _449
REMARK  183  A    between atoms: _449  and  _450
REMARK  184  A    between atoms: _449  and  _452
REMARK  185  A    between atoms: _452  and  _453
REMARK  186  A    between atoms: _453  and  _454
REMARK  187  A    between atoms: _456  and  _458
REMARK  188  A    between atoms: _458  and  _459
REMARK  189  A    between atoms: _461  and  _463
REMARK  190  A    between atoms: _463  and  _464
REMARK  191  A    between atoms: _463  and  _466
REMARK  192  A    between atoms: _466  and  _467
REMARK  193  A    between atoms: _470  and  _472
REMARK  194  A    between atoms: _472  and  _473
REMARK  195  A    between atoms: _472  and  _475
REMARK  196  A    between atoms: _475  and  _476
REMARK  197  A    between atoms: _482  and  _484
REMARK  198  A    between atoms: _484  and  _485
REMARK  199  A    between atoms: _487  and  _489
REMARK  200  A    between atoms: _489  and  _490
REMARK  201  A    between atoms: _489  and  _492
REMARK  202  A    between atoms: _492  and  _493
REMARK  203  A    between atoms: _493  and  _494
REMARK  204  A    between atoms: _494  and  _495
REMARK  205  A    between atoms: _495  and  _496
REMARK  206  A    between atoms: _500  and  _502
REMARK  207  A    between atoms: _502  and  _503
REMARK  208  A    between atoms: _505  and  _507
REMARK  209  A    between atoms: _507  and  _508
REMARK  210  A    between atoms: _507  and  _510
REMARK  211  A    between atoms: _513  and  _515
REMARK  212  A    between atoms: _515  and  _516
REMARK  213  A    between atoms: _518  and  _520
REMARK  214  A    between atoms: _520  and  _521
REMARK  215  A    between atoms: _520  and  _523
REMARK  216  A    between atoms: _523  and  _524
REMARK                            x       y       z     vdW  Elec       q    Type
REMARK                         _______ _______ _______ _____ _____    ______ ____
ROOT
ATOM      1  O   HOH     1      15.559  -6.678   5.193  0.00  0.00    +0.000 OA
ENDROOT
TORSDOF 0
REMARK  Name = ../refined-set-2016/4pp0/4pp0_pocket.pdb
REMARK  216 active torsions:
REMARK  status: ('A' for Active; 'I' for Inactive)
REMARK    1  A    between atoms: _1  and  _3
REMARK    2  A    between atoms: _3  and  _4
REMARK    3  A    between atoms: _3  and  _6
REMARK    4  A    between atoms: _6  and  _7
REMARK    5  A    between atoms: _10  and  _12
REMARK    6  A    between atoms: _12  and  _13
REMARK    7  A    between atoms: _12  and  _15
REMARK    8  A    between atoms: _15  and  _16
REMARK    9  A    between atoms: _16  and  _17
REMARK   10  A    between atoms: _20  and  _22
REMARK   11  A    between atoms: _22  and  _23
REMARK   12  A    between atoms: _25  and  _27
REMARK   13  A    between atoms: _27  and  _28
REMARK   14  A    between atoms: _27  and  _30
REMARK   15  A    between atoms: _30  and  _31
REMARK   16  A    between atoms: _33  and  _35
REMARK   17  A    between atoms: _35  and  _36
REMARK   18  A    between atoms: _35  and  _38
REMARK   19  A    between atoms: _38  and  _39
REMARK   20  A    between atoms: _44  and  _45
REMARK   21  A    between atoms: _47  and  _49
REMARK   22  A    between atoms: _49  and  _50
REMARK   23  A    between atoms: _53  and  _55
REMARK   24  A    between atoms: _55  and  _56
REMARK   25  A    between atoms: _55  and  _58
REMARK   26  A    between atoms: _58  and  _59
REMARK   27  A    between atoms: _64  and  _65
REMARK   28  A    between atoms: _67  and  _69
REMARK   29  A    between atoms: _69  and  _70
REMARK   30  A    between atoms: _69  and  _72
REMARK   31  A    between atoms: _72  and  _73
REMARK   32  A    between atoms: _78  and  _80
REMARK   33  A    between atoms: _80  and  _81
REMARK   34  A    between atoms: _80  and  _83
REMARK   35  A    between atoms: _83  and  _84
REMARK   36  A    between atoms: _87  and  _89
REMARK   37  A    between atoms: _89  and  _90
REMARK   38  A    between atoms: _89  and  _92
REMARK   39  A    between atoms: _92  and  _93
REMARK   40  A    between atoms: _93  and  _94
REMARK   41  A    between atoms: _99  and  _101
REMARK   42  A    between atoms: _101  and  _102
REMARK   43  A    between atoms: _101  and  _104
REMARK   44  A    between atoms: _104  and  _105
REMARK   45  A    between atoms: _115  and  _117
REMARK   46  A    between atoms: _117  and  _118
REMARK   47  A    between atoms: _117  and  _120
REMARK   48  A    between atoms: _120  and  _121
REMARK   49  A    between atoms: _124  and  _126
REMARK   50  A    between atoms: _126  and  _127
REMARK   51  A    between atoms: _126  and  _129
REMARK   52  A    between atoms: _129  and  _130
REMARK   53  A    between atoms: _133  and  _135
REMARK   54  A    between atoms: _135  and  _136
REMARK   55  A    between atoms: _135  and  _138
REMARK   56  A    between atoms: _138  and  _139
REMARK   57  A    between atoms: _139  and  _140
REMARK   58  A    between atoms: _142  and  _144
REMARK   59  A    between atoms: _144  and  _145
REMARK   60  A    between atoms: _148  and  _150
REMARK   61  A    between atoms: _150  and  _151
REMARK   62  A    between atoms: _154  and  _156
REMARK   63  A    between atoms: _156  and  _157
REMARK   64  A    between atoms: _156  and  _159
REMARK   65  A    between atoms: _159  and  _160
REMARK   66  A    between atoms: _160  and  _161
REMARK   67  A    between atoms: _163  and  _165
REMARK   68  A    between atoms: _165  and  _166
REMARK   69  A    between atoms: _168  and  _170
REMARK   70  A    between atoms: _170  and  _171
REMARK   71  A    between atoms: _170  and  _173
REMARK   72  A    between atoms: _173  and  _174
REMARK   73  A    between atoms: _177  and  _179
REMARK   74  A    between atoms: _179  and  _180
REMARK   75  A    between atoms: _179  and  _182
REMARK   76  A    between atoms: _182  and  _183
REMARK   77  A    between atoms: _183  and  _184
REMARK   78  A    between atoms: _189  and  _191
REMARK   79  A    between atoms: _191  and  _192
REMARK   80  A    between atoms: _191  and  _194
REMARK   81  A    between atoms: _194  and  _195
REMARK   82  A    between atoms: _195  and  _196
REMARK   83  A    between atoms: _196  and  _197
REMARK   84  A    between atoms: _206  and  _208
REMARK   85  A    between atoms: _208  and  _209
REMARK   86  A    between atoms: _208  and  _211
REMARK   87  A    between atoms: _211  and  _212
REMARK   88  A    between atoms: _218  and  _220
REMARK   89  A    between atoms: _220  and  _221
REMARK   90  A    between atoms: _220  and  _223
REMARK   91  A    between atoms: _223  and  _224
REMARK   92  A    between atoms: _227  and  _229
REMARK   93  A    between atoms: _229  and  _230
REMARK   94  A    between atoms: _229  and  _232
REMARK   95  A    between atoms: _232  and  _233
REMARK   96  A    between atoms: _236  and  _238
REMARK   97  A    between atoms: _238  and  _239
REMARK   98  A    between atoms: _238  and  _241
REMARK   99  A    between atoms: _241  and  _242
REMARK  100  A    between atoms: _246  and  _247
REMARK  101  A    between atoms: _252  and  _254
REMARK  102  A    between atoms: _254  and  _255
REMARK  103  A    between atoms: _254  and  _257
REMARK  104  A    between atoms: _257  and  _258
REMARK  105  A    between atoms: _263  and  _265
REMARK  106  A    between atoms: _265  and  _266
REMARK  107  A    between atoms: _265  and  _268
REMARK  108  A    between atoms: _268  and  _269
REMARK  109  A    between atoms: _272  and  _274
REMARK  110  A    between atoms: _274  and  _275
REMARK  111  A    between atoms: _274  and  _277
REMARK  112  A    between atoms: _277  and  _278
REMARK  113  A    between atoms: _278  and  _279
REMARK  114  A    between atoms: _284  and  _286
REMARK  115  A    between atoms: _286  and  _287
REMARK  116  A    between atoms: _290  and  _292
REMARK  117  A    between atoms: _292  and  _293
REMARK  118  A    between atoms: _295  and  _297
REMARK  119  A    between atoms: _297  and  _298
REMARK  120  A    between atoms: _297  and  _300
REMARK  121  A    between atoms: _300  and  _301
REMARK  122  A    between atoms: _304  and  _306
REMARK  123  A    between atoms: _306  and  _307
REMARK  124  A    between atoms: _306  and  _309
REMARK  125  A    between atoms: _309  and  _310
REMARK  126  A    between atoms: _312  and  _314
REMARK  127  A    between atoms: _314  and  _315
REMARK  128  A    between atoms: _314  and  _317
REMARK  129  A    between atoms: _317  and  _318
REMARK  130  A    between atoms: _323  and  _325
REMARK  131  A    between atoms: _325  and  _326
REMARK  132  A    between atoms: _325  and  _328
REMARK  133  A    between atoms: _328  and  _329
REMARK  134  A    between atoms: _329  and  _330
REMARK  135  A    between atoms: _333  and  _335
REMARK  136  A    between atoms: _335  and  _336
REMARK  137  A    between atoms: _339  and  _341
REMARK  138  A    between atoms: _341  and  _342
REMARK  139  A    between atoms: _341  and  _344
REMARK  140  A    between atoms: _344  and  _345
REMARK  141  A    between atoms: _351  and  _353
REMARK  142  A    between atoms: _353  and  _354
REMARK  143  A    between atoms: _353  and  _356
REMARK  144  A    between atoms: _356  and  _357
REMARK  145  A    between atoms: _360  and  _362
REMARK  146  A    between atoms: _362  and  _363
REMARK  147  A    between atoms: _362  and  _365
REMARK  148  A    between atoms: _365  and  _366
REMARK  149  A    between atoms: _369  and  _371
REMARK  150  A    between atoms: _371  and  _372
REMARK  151  A    between atoms: _371  and  _374
REMARK  152  A    between atoms: _374  and  _375
REMARK  153  A    between atoms: _378  and  _380
REMARK  154  A    between atoms: _380  and  _381
REMARK  155  A    between atoms: _380  and  _383
REMARK  156  A    between atoms: _383  and  _384
REMARK  157  A    between atoms: _387  and  _389
REMARK  158  A    between atoms: _389  and  _390
REMARK  159  A    between atoms: _389  and  _392
REMARK  160  A    between atoms: _392  and  _393
REMARK  161  A    between atoms: _396  and  _398
REMARK  162  A    between atoms: _398  and  _399
REMARK  163  A    between atoms: _402  and  _404
REMARK  164  A    between atoms: _404  and  _405
REMARK  165  A    between atoms: _404  and  _407
REMARK  166  A    between atoms: _407  and  _408
REMARK  167  A    between atoms: _410  and  _412
REMARK  168  A    between atoms: _412  and  _413
REMARK  169  A    between atoms: _412  and  _415
REMARK  170  A    between atoms: _418  and  _420
REMARK  171  A    between atoms: _420  and  _421
REMARK  172  A    between atoms: _420  and  _423
REMARK  173  A    between atoms: _423  and  _424
REMARK  174  A    between atoms: _426  and  _428
REMARK  175  A    between atoms: _428  and  _429
REMARK  176  A    between atoms: _428  and  _431
REMARK  177  A    between atoms: _431  and  _432
REMARK  178  A    between atoms: _438  and  _440
REMARK  179  A    between atoms: _440  and  _441
REMARK  180  A    between atoms: _440  and  _443
REMARK  181  A    between atoms: _443  and  _444
REMARK  182  A    between atoms: _447  and  _449
REMARK  183  A    between atoms: _449  and  _450
REMARK  184  A    between atoms: _449  and  _452
REMARK  185  A    between atoms: _452  and  _453
REMARK  186  A    between atoms: _453  and  _454
REMARK  187  A    between atoms: _456  and  _458
REMARK  188  A    between atoms: _458  and  _459
REMARK  189  A    between atoms: _461  and  _463
REMARK  190  A    between atoms: _463  and  _464
REMARK  191  A    between atoms: _463  and  _466
REMARK  192  A    between atoms: _466  and  _467
REMARK  193  A    between atoms: _470  and  _472
REMARK  194  A    between atoms: _472  and  _473
REMARK  195  A    between atoms: _472  and  _475
REMARK  196  A    between atoms: _475  and  _476
REMARK  197  A    between atoms: _482  and  _484
REMARK  198  A    between atoms: _484  and  _485
REMARK  199  A    between atoms: _487  and  _489
REMARK  200  A    between atoms: _489  and  _490
REMARK  201  A    between atoms: _489  and  _492
REMARK  202  A    between atoms: _492  and  _493
REMARK  203  A    between atoms: _493  and  _494
REMARK  204  A    between atoms: _494  and  _495
REMARK  205  A    between atoms: _495  and  _496
REMARK  206  A    between atoms: _500  and  _502
REMARK  207  A    between atoms: _502  and  _503
REMARK  208  A    between atoms: _505  and  _507
REMARK  209  A    between atoms: _507  and  _508
REMARK  210  A    between atoms: _507  and  _510
REMARK  211  A    between atoms: _513  and  _515
REMARK  212  A    between atoms: _515  and  _516
REMARK  213  A    between atoms: _518  and  _520
REMARK  214  A    between atoms: _520  and  _521
REMARK  215  A    between atoms: _520  and  _523
REMARK  216  A    between atoms: _523  and  _524
REMARK                            x       y       z     vdW  Elec       q    Type
REMARK                         _______ _______ _______ _____ _____    ______ ____
ROOT
ATOM      1  O   HOH     1      19.957 -14.628  -4.983  0.00  0.00    +0.000 OA
ENDROOT
TORSDOF 0
REMARK  Name = ../refined-set-2016/4pp0/4pp0_pocket.pdb
REMARK  216 active torsions:
REMARK  status: ('A' for Active; 'I' for Inactive)
REMARK    1  A    between atoms: _1  and  _3
REMARK    2  A    between atoms: _3  and  _4
REMARK    3  A    between atoms: _3  and  _6
REMARK    4  A    between atoms: _6  and  _7
REMARK    5  A    between atoms: _10  and  _12
REMARK    6  A    between atoms: _12  and  _13
REMARK    7  A    between atoms: _12  and  _15
REMARK    8  A    between atoms: _15  and  _16
REMARK    9  A    between atoms: _16  and  _17
REMARK   10  A    between atoms: _20  and  _22
REMARK   11  A    between atoms: _22  and  _23
REMARK   12  A    between atoms: _25  and  _27
REMARK   13  A    between atoms: _27  and  _28
REMARK   14  A    between atoms: _27  and  _30
REMARK   15  A    between atoms: _30  and  _31
REMARK   16  A    between atoms: _33  and  _35
REMARK   17  A    between atoms: _35  and  _36
REMARK   18  A    between atoms: _35  and  _38
REMARK   19  A    between atoms: _38  and  _39
REMARK   20  A    between atoms: _44  and  _45
REMARK   21  A    between atoms: _47  and  _49
REMARK   22  A    between atoms: _49  and  _50
REMARK   23  A    between atoms: _53  and  _55
REMARK   24  A    between atoms: _55  and  _56
REMARK   25  A    between atoms: _55  and  _58
REMARK   26  A    between atoms: _58  and  _59
REMARK   27  A    between atoms: _64  and  _65
REMARK   28  A    between atoms: _67  and  _69
REMARK   29  A    between atoms: _69  and  _70
REMARK   30  A    between atoms: _69  and  _72
REMARK   31  A    between atoms: _72  and  _73
REMARK   32  A    between atoms: _78  and  _80
REMARK   33  A    between atoms: _80  and  _81
REMARK   34  A    between atoms: _80  and  _83
REMARK   35  A    between atoms: _83  and  _84
REMARK   36  A    between atoms: _87  and  _89
REMARK   37  A    between atoms: _89  and  _90
REMARK   38  A    between atoms: _89  and  _92
REMARK   39  A    between atoms: _92  and  _93
REMARK   40  A    between atoms: _93  and  _94
REMARK   41  A    between atoms: _99  and  _101
REMARK   42  A    between atoms: _101  and  _102
REMARK   43  A    between atoms: _101  and  _104
REMARK   44  A    between atoms: _104  and  _105
REMARK   45  A    between atoms: _115  and  _117
REMARK   46  A    between atoms: _117  and  _118
REMARK   47  A    between atoms: _117  and  _120
REMARK   48  A    between atoms: _120  and  _121
REMARK   49  A    between atoms: _124  and  _126
REMARK   50  A    between atoms: _126  and  _127
REMARK   51  A    between atoms: _126  and  _129
REMARK   52  A    between atoms: _129  and  _130
REMARK   53  A    between atoms: _133  and  _135
REMARK   54  A    between atoms: _135  and  _136
REMARK   55  A    between atoms: _135  and  _138
REMARK   56  A    between atoms: _138  and  _139
REMARK   57  A    between atoms: _139  and  _140
REMARK   58  A    between atoms: _142  and  _144
REMARK   59  A    between atoms: _144  and  _145
REMARK   60  A    between atoms: _148  and  _150
REMARK   61  A    between atoms: _150  and  _151
REMARK   62  A    between atoms: _154  and  _156
REMARK   63  A    between atoms: _156  and  _157
REMARK   64  A    between atoms: _156  and  _159
REMARK   65  A    between atoms: _159  and  _160
REMARK   66  A    between atoms: _160  and  _161
REMARK   67  A    between atoms: _163  and  _165
REMARK   68  A    between atoms: _165  and  _166
REMARK   69  A    between atoms: _168  and  _170
REMARK   70  A    between atoms: _170  and  _171
REMARK   71  A    between atoms: _170  and  _173
REMARK   72  A    between atoms: _173  and  _174
REMARK   73  A    between atoms: _177  and  _179
REMARK   74  A    between atoms: _179  and  _180
REMARK   75  A    between atoms: _179  and  _182
REMARK   76  A    between atoms: _182  and  _183
REMARK   77  A    between atoms: _183  and  _184
REMARK   78  A    between atoms: _189  and  _191
REMARK   79  A    between atoms: _191  and  _192
REMARK   80  A    between atoms: _191  and  _194
REMARK   81  A    between atoms: _194  and  _195
REMARK   82  A    between atoms: _195  and  _196
REMARK   83  A    between atoms: _196  and  _197
REMARK   84  A    between atoms: _206  and  _208
REMARK   85  A    between atoms: _208  and  _209
REMARK   86  A    between atoms: _208  and  _211
REMARK   87  A    between atoms: _211  and  _212
REMARK   88  A    between atoms: _218  and  _220
REMARK   89  A    between atoms: _220  and  _221
REMARK   90  A    between atoms: _220  and  _223
REMARK   91  A    between atoms: _223  and  _224
REMARK   92  A    between atoms: _227  and  _229
REMARK   93  A    between atoms: _229  and  _230
REMARK   94  A    between atoms: _229  and  _232
REMARK   95  A    between atoms: _232  and  _233
REMARK   96  A    between atoms: _236  and  _238
REMARK   97  A    between atoms: _238  and  _239
REMARK   98  A    between atoms: _238  and  _241
REMARK   99  A    between atoms: _241  and  _242
REMARK  100  A    between atoms: _246  and  _247
REMARK  101  A    between atoms: _252  and  _254
REMARK  102  A    between atoms: _254  and  _255
REMARK  103  A    between atoms: _254  and  _257
REMARK  104  A    between atoms: _257  and  _258
REMARK  105  A    between atoms: _263  and  _265
REMARK  106  A    between atoms: _265  and  _266
REMARK  107  A    between atoms: _265  and  _268
REMARK  108  A    between atoms: _268  and  _269
REMARK  109  A    between atoms: _272  and  _274
REMARK  110  A    between atoms: _274  and  _275
REMARK  111  A    between atoms: _274  and  _277
REMARK  112  A    between atoms: _277  and  _278
REMARK  113  A    between atoms: _278  and  _279
REMARK  114  A    between atoms: _284  and  _286
REMARK  115  A    between atoms: _286  and  _287
REMARK  116  A    between atoms: _290  and  _292
REMARK  117  A    between atoms: _292  and  _293
REMARK  118  A    between atoms: _295  and  _297
REMARK  119  A    between atoms: _297  and  _298
REMARK  120  A    between atoms: _297  and  _300
REMARK  121  A    between atoms: _300  and  _301
REMARK  122  A    between atoms: _304  and  _306
REMARK  123  A    between atoms: _306  and  _307
REMARK  124  A    between atoms: _306  and  _309
REMARK  125  A    between atoms: _309  and  _310
REMARK  126  A    between atoms: _312  and  _314
REMARK  127  A    between atoms: _314  and  _315
REMARK  128  A    between atoms: _314  and  _317
REMARK  129  A    between atoms: _317  and  _318
REMARK  130  A    between atoms: _323  and  _325
REMARK  131  A    between atoms: _325  and  _326
REMARK  132  A    between atoms: _325  and  _328
REMARK  133  A    between atoms: _328  and  _329
REMARK  134  A    between atoms: _329  and  _330
REMARK  135  A    between atoms: _333  and  _335
REMARK  136  A    between atoms: _335  and  _336
REMARK  137  A    between atoms: _339  and  _341
REMARK  138  A    between atoms: _341  and  _342
REMARK  139  A    between atoms: _341  and  _344
REMARK  140  A    between atoms: _344  and  _345
REMARK  141  A    between atoms: _351  and  _353
REMARK  142  A    between atoms: _353  and  _354
REMARK  143  A    between atoms: _353  and  _356
REMARK  144  A    between atoms: _356  and  _357
REMARK  145  A    between atoms: _360  and  _362
REMARK  146  A    between atoms: _362  and  _363
REMARK  147  A    between atoms: _362  and  _365
REMARK  148  A    between atoms: _365  and  _366
REMARK  149  A    between atoms: _369  and  _371
REMARK  150  A    between atoms: _371  and  _372
REMARK  151  A    between atoms: _371  and  _374
REMARK  152  A    between atoms: _374  and  _375
REMARK  153  A    between atoms: _378  and  _380
REMARK  154  A    between atoms: _380  and  _381
REMARK  155  A    between atoms: _380  and  _383
REMARK  156  A    between atoms: _383  and  _384
REMARK  157  A    between atoms: _387  and  _389
REMARK  158  A    between atoms: _389  and  _390
REMARK  159  A    between atoms: _389  and  _392
REMARK  160  A    between atoms: _392  and  _393
REMARK  161  A    between atoms: _396  and  _398
REMARK  162  A    between atoms: _398  and  _399
REMARK  163  A    between atoms: _402  and  _404
REMARK  164  A    between atoms: _404  and  _405
REMARK  165  A    between atoms: _404  and  _407
REMARK  166  A    between atoms: _407  and  _408
REMARK  167  A    between atoms: _410  and  _412
REMARK  168  A    between atoms: _412  and  _413
REMARK  169  A    between atoms: _412  and  _415
REMARK  170  A    between atoms: _418  and  _420
REMARK  171  A    between atoms: _420  and  _421
REMARK  172  A    between atoms: _420  and  _423
REMARK  173  A    between atoms: _423  and  _424
REMARK  174  A    between atoms: _426  and  _428
REMARK  175  A    between atoms: _428  and  _429
REMARK  176  A    between atoms: _428  and  _431
REMARK  177  A    between atoms: _431  and  _432
REMARK  178  A    between atoms: _438  and  _440
REMARK  179  A    between atoms: _440  and  _441
REMARK  180  A    between atoms: _440  and  _443
REMARK  181  A    between atoms: _443  and  _444
REMARK  182  A    between atoms: _447  and  _449
REMARK  183  A    between atoms: _449  and  _450
REMARK  184  A    between atoms: _449  and  _452
REMARK  185  A    between atoms: _452  and  _453
REMARK  186  A    between atoms: _453  and  _454
REMARK  187  A    between atoms: _456  and  _458
REMARK  188  A    between atoms: _458  and  _459
REMARK  189  A    between atoms: _461  and  _463
REMARK  190  A    between atoms: _463  and  _464
REMARK  191  A    between atoms: _463  and  _466
REMARK  192  A    between atoms: _466  and  _467
REMARK  193  A    between atoms: _470  and  _472
REMARK  194  A    between atoms: _472  and  _473
REMARK  195  A    between atoms: _472  and  _475
REMARK  196  A    between atoms: _475  and  _476
REMARK  197  A    between atoms: _482  and  _484
REMARK  198  A    between atoms: _484  and  _485
REMARK  199  A    between atoms: _487  and  _489
REMARK  200  A    between atoms: _489  and  _490
REMARK  201  A    between atoms: _489  and  _492
REMARK  202  A    between atoms: _492  and  _493
REMARK  203  A    between atoms: _493  and  _494
REMARK  204  A    between atoms: _494  and  _495
REMARK  205  A    between atoms: _495  and  _496
REMARK  206  A    between atoms: _500  and  _502
REMARK  207  A    between atoms: _502  and  _503
REMARK  208  A    between atoms: _505  and  _507
REMARK  209  A    between atoms: _507  and  _508
REMARK  210  A    between atoms: _507  and  _510
REMARK  211  A    between atoms: _513  and  _515
REMARK  212  A    between atoms: _515  and  _516
REMARK  213  A    between atoms: _518  and  _520
REMARK  214  A    between atoms: _520  and  _521
REMARK  215  A    between atoms: _520  and  _523
REMARK  216  A    between atoms: _523  and  _524
REMARK                            x       y       z     vdW  Elec       q    Type
REMARK                         _______ _______ _______ _____ _____    ______ ____
ROOT
ATOM      1  O   HOH     1      13.284  -9.347 -11.711  0.00  0.00    +0.000 OA
ENDROOT
TORSDOF 0
REMARK  Name = ../refined-set-2016/4pp0/4pp0_pocket.pdb
REMARK  216 active torsions:
REMARK  status: ('A' for Active; 'I' for Inactive)
REMARK    1  A    between atoms: _1  and  _3
REMARK    2  A    between atoms: _3  and  _4
REMARK    3  A    between atoms: _3  and  _6
REMARK    4  A    between atoms: _6  and  _7
REMARK    5  A    between atoms: _10  and  _12
REMARK    6  A    between atoms: _12  and  _13
REMARK    7  A    between atoms: _12  and  _15
REMARK    8  A    between atoms: _15  and  _16
REMARK    9  A    between atoms: _16  and  _17
REMARK   10  A    between atoms: _20  and  _22
REMARK   11  A    between atoms: _22  and  _23
REMARK   12  A    between atoms: _25  and  _27
REMARK   13  A    between atoms: _27  and  _28
REMARK   14  A    between atoms: _27  and  _30
REMARK   15  A    between atoms: _30  and  _31
REMARK   16  A    between atoms: _33  and  _35
REMARK   17  A    between atoms: _35  and  _36
REMARK   18  A    between atoms: _35  and  _38
REMARK   19  A    between atoms: _38  and  _39
REMARK   20  A    between atoms: _44  and  _45
REMARK   21  A    between atoms: _47  and  _49
REMARK   22  A    between atoms: _49  and  _50
REMARK   23  A    between atoms: _53  and  _55
REMARK   24  A    between atoms: _55  and  _56
REMARK   25  A    between atoms: _55  and  _58
REMARK   26  A    between atoms: _58  and  _59
REMARK   27  A    between atoms: _64  and  _65
REMARK   28  A    between atoms: _67  and  _69
REMARK   29  A    between atoms: _69  and  _70
REMARK   30  A    between atoms: _69  and  _72
REMARK   31  A    between atoms: _72  and  _73
REMARK   32  A    between atoms: _78  and  _80
REMARK   33  A    between atoms: _80  and  _81
REMARK   34  A    between atoms: _80  and  _83
REMARK   35  A    between atoms: _83  and  _84
REMARK   36  A    between atoms: _87  and  _89
REMARK   37  A    between atoms: _89  and  _90
REMARK   38  A    between atoms: _89  and  _92
REMARK   39  A    between atoms: _92  and  _93
REMARK   40  A    between atoms: _93  and  _94
REMARK   41  A    between atoms: _99  and  _101
REMARK   42  A    between atoms: _101  and  _102
REMARK   43  A    between atoms: _101  and  _104
REMARK   44  A    between atoms: _104  and  _105
REMARK   45  A    between atoms: _115  and  _117
REMARK   46  A    between atoms: _117  and  _118
REMARK   47  A    between atoms: _117  and  _120
REMARK   48  A    between atoms: _120  and  _121
REMARK   49  A    between atoms: _124  and  _126
REMARK   50  A    between atoms: _126  and  _127
REMARK   51  A    between atoms: _126  and  _129
REMARK   52  A    between atoms: _129  and  _130
REMARK   53  A    between atoms: _133  and  _135
REMARK   54  A    between atoms: _135  and  _136
REMARK   55  A    between atoms: _135  and  _138
REMARK   56  A    between atoms: _138  and  _139
REMARK   57  A    between atoms: _139  and  _140
REMARK   58  A    between atoms: _142  and  _144
REMARK   59  A    between atoms: _144  and  _145
REMARK   60  A    between atoms: _148  and  _150
REMARK   61  A    between atoms: _150  and  _151
REMARK   62  A    between atoms: _154  and  _156
REMARK   63  A    between atoms: _156  and  _157
REMARK   64  A    between atoms: _156  and  _159
REMARK   65  A    between atoms: _159  and  _160
REMARK   66  A    between atoms: _160  and  _161
REMARK   67  A    between atoms: _163  and  _165
REMARK   68  A    between atoms: _165  and  _166
REMARK   69  A    between atoms: _168  and  _170
REMARK   70  A    between atoms: _170  and  _171
REMARK   71  A    between atoms: _170  and  _173
REMARK   72  A    between atoms: _173  and  _174
REMARK   73  A    between atoms: _177  and  _179
REMARK   74  A    between atoms: _179  and  _180
REMARK   75  A    between atoms: _179  and  _182
REMARK   76  A    between atoms: _182  and  _183
REMARK   77  A    between atoms: _183  and  _184
REMARK   78  A    between atoms: _189  and  _191
REMARK   79  A    between atoms: _191  and  _192
REMARK   80  A    between atoms: _191  and  _194
REMARK   81  A    between atoms: _194  and  _195
REMARK   82  A    between atoms: _195  and  _196
REMARK   83  A    between atoms: _196  and  _197
REMARK   84  A    between atoms: _206  and  _208
REMARK   85  A    between atoms: _208  and  _209
REMARK   86  A    between atoms: _208  and  _211
REMARK   87  A    between atoms: _211  and  _212
REMARK   88  A    between atoms: _218  and  _220
REMARK   89  A    between atoms: _220  and  _221
REMARK   90  A    between atoms: _220  and  _223
REMARK   91  A    between atoms: _223  and  _224
REMARK   92  A    between atoms: _227  and  _229
REMARK   93  A    between atoms: _229  and  _230
REMARK   94  A    between atoms: _229  and  _232
REMARK   95  A    between atoms: _232  and  _233
REMARK   96  A    between atoms: _236  and  _238
REMARK   97  A    between atoms: _238  and  _239
REMARK   98  A    between atoms: _238  and  _241
REMARK   99  A    between atoms: _241  and  _242
REMARK  100  A    between atoms: _246  and  _247
REMARK  101  A    between atoms: _252  and  _254
REMARK  102  A    between atoms: _254  and  _255
REMARK  103  A    between atoms: _254  and  _257
REMARK  104  A    between atoms: _257  and  _258
REMARK  105  A    between atoms: _263  and  _265
REMARK  106  A    between atoms: _265  and  _266
REMARK  107  A    between atoms: _265  and  _268
REMARK  108  A    between atoms: _268  and  _269
REMARK  109  A    between atoms: _272  and  _274
REMARK  110  A    between atoms: _274  and  _275
REMARK  111  A    between atoms: _274  and  _277
REMARK  112  A    between atoms: _277  and  _278
REMARK  113  A    between atoms: _278  and  _279
REMARK  114  A    between atoms: _284  and  _286
REMARK  115  A    between atoms: _286  and  _287
REMARK  116  A    between atoms: _290  and  _292
REMARK  117  A    between atoms: _292  and  _293
REMARK  118  A    between atoms: _295  and  _297
REMARK  119  A    between atoms: _297  and  _298
REMARK  120  A    between atoms: _297  and  _300
REMARK  121  A    between atoms: _300  and  _301
REMARK  122  A    between atoms: _304  and  _306
REMARK  123  A    between atoms: _306  and  _307
REMARK  124  A    between atoms: _306  and  _309
REMARK  125  A    between atoms: _309  and  _310
REMARK  126  A    between atoms: _312  and  _314
REMARK  127  A    between atoms: _314  and  _315
REMARK  128  A    between atoms: _314  and  _317
REMARK  129  A    between atoms: _317  and  _318
REMARK  130  A    between atoms: _323  and  _325
REMARK  131  A    between atoms: _325  and  _326
REMARK  132  A    between atoms: _325  and  _328
REMARK  133  A    between atoms: _328  and  _329
REMARK  134  A    between atoms: _329  and  _330
REMARK  135  A    between atoms: _333  and  _335
REMARK  136  A    between atoms: _335  and  _336
REMARK  137  A    between atoms: _339  and  _341
REMARK  138  A    between atoms: _341  and  _342
REMARK  139  A    between atoms: _341  and  _344
REMARK  140  A    between atoms: _344  and  _345
REMARK  141  A    between atoms: _351  and  _353
REMARK  142  A    between atoms: _353  and  _354
REMARK  143  A    between atoms: _353  and  _356
REMARK  144  A    between atoms: _356  and  _357
REMARK  145  A    between atoms: _360  and  _362
REMARK  146  A    between atoms: _362  and  _363
REMARK  147  A    between atoms: _362  and  _365
REMARK  148  A    between atoms: _365  and  _366
REMARK  149  A    between atoms: _369  and  _371
REMARK  150  A    between atoms: _371  and  _372
REMARK  151  A    between atoms: _371  and  _374
REMARK  152  A    between atoms: _374  and  _375
REMARK  153  A    between atoms: _378  and  _380
REMARK  154  A    between atoms: _380  and  _381
REMARK  155  A    between atoms: _380  and  _383
REMARK  156  A    between atoms: _383  and  _384
REMARK  157  A    between atoms: _387  and  _389
REMARK  158  A    between atoms: _389  and  _390
REMARK  159  A    between atoms: _389  and  _392
REMARK  160  A    between atoms: _392  and  _393
REMARK  161  A    between atoms: _396  and  _398
REMARK  162  A    between atoms: _398  and  _399
REMARK  163  A    between atoms: _402  and  _404
REMARK  164  A    between atoms: _404  and  _405
REMARK  165  A    between atoms: _404  and  _407
REMARK  166  A    between atoms: _407  and  _408
REMARK  167  A    between atoms: _410  and  _412
REMARK  168  A    between atoms: _412  and  _413
REMARK  169  A    between atoms: _412  and  _415
REMARK  170  A    between atoms: _418  and  _420
REMARK  171  A    between atoms: _420  and  _421
REMARK  172  A    between atoms: _420  and  _423
REMARK  173  A    between atoms: _423  and  _424
REMARK  174  A    between atoms: _426  and  _428
REMARK  175  A    between atoms: _428  and  _429
REMARK  176  A    between atoms: _428  and  _431
REMARK  177  A    between atoms: _431  and  _432
REMARK  178  A    between atoms: _438  and  _440
REMARK  179  A    between atoms: _440  and  _441
REMARK  180  A    between atoms: _440  and  _443
REMARK  181  A    between atoms: _443  and  _444
REMARK  182  A    between atoms: _447  and  _449
REMARK  183  A    between atoms: _449  and  _450
REMARK  184  A    between atoms: _449  and  _452
REMARK  185  A    between atoms: _452  and  _453
REMARK  186  A    between atoms: _453  and  _454
REMARK  187  A    between atoms: _456  and  _458
REMARK  188  A    between atoms: _458  and  _459
REMARK  189  A    between atoms: _461  and  _463
REMARK  190  A    between atoms: _463  and  _464
REMARK  191  A    between atoms: _463  and  _466
REMARK  192  A    between atoms: _466  and  _467
REMARK  193  A    between atoms: _470  and  _472
REMARK  194  A    between atoms: _472  and  _473
REMARK  195  A    between atoms: _472  and  _475
REMARK  196  A    between atoms: _475  and  _476
REMARK  197  A    between atoms: _482  and  _484
REMARK  198  A    between atoms: _484  and  _485
REMARK  199  A    between atoms: _487  and  _489
REMARK  200  A    between atoms: _489  and  _490
REMARK  201  A    between atoms: _489  and  _492
REMARK  202  A    between atoms: _492  and  _493
REMARK  203  A    between atoms: _493  and  _494
REMARK  204  A    between atoms: _494  and  _495
REMARK  205  A    between atoms: _495  and  _496
REMARK  206  A    between atoms: _500  and  _502
REMARK  207  A    between atoms: _502  and  _503
REMARK  208  A    between atoms: _505  and  _507
REMARK  209  A    between atoms: _507  and  _508
REMARK  210  A    between atoms: _507  and  _510
REMARK  211  A    between atoms: _513  and  _515
REMARK  212  A    between atoms: _515  and  _516
REMARK  213  A    between atoms: _518  and  _520
REMARK  214  A    between atoms: _520  and  _521
REMARK  215  A    between atoms: _520  and  _523
REMARK  216  A    between atoms: _523  and  _524
REMARK                            x       y       z     vdW  Elec       q    Type
REMARK                         _______ _______ _______ _____ _____    ______ ____
ROOT
ATOM      1  O   HOH     1      28.386  -3.985 -10.267  0.00  0.00    +0.000 OA
ENDROOT
TORSDOF 0
REMARK  Name = ../refined-set-2016/4pp0/4pp0_pocket.pdb
REMARK  216 active torsions:
REMARK  status: ('A' for Active; 'I' for Inactive)
REMARK    1  A    between atoms: _1  and  _3
REMARK    2  A    between atoms: _3  and  _4
REMARK    3  A    between atoms: _3  and  _6
REMARK    4  A    between atoms: _6  and  _7
REMARK    5  A    between atoms: _10  and  _12
REMARK    6  A    between atoms: _12  and  _13
REMARK    7  A    between atoms: _12  and  _15
REMARK    8  A    between atoms: _15  and  _16
REMARK    9  A    between atoms: _16  and  _17
REMARK   10  A    between atoms: _20  and  _22
REMARK   11  A    between atoms: _22  and  _23
REMARK   12  A    between atoms: _25  and  _27
REMARK   13  A    between atoms: _27  and  _28
REMARK   14  A    between atoms: _27  and  _30
REMARK   15  A    between atoms: _30  and  _31
REMARK   16  A    between atoms: _33  and  _35
REMARK   17  A    between atoms: _35  and  _36
REMARK   18  A    between atoms: _35  and  _38
REMARK   19  A    between atoms: _38  and  _39
REMARK   20  A    between atoms: _44  and  _45
REMARK   21  A    between atoms: _47  and  _49
REMARK   22  A    between atoms: _49  and  _50
REMARK   23  A    between atoms: _53  and  _55
REMARK   24  A    between atoms: _55  and  _56
REMARK   25  A    between atoms: _55  and  _58
REMARK   26  A    between atoms: _58  and  _59
REMARK   27  A    between atoms: _64  and  _65
REMARK   28  A    between atoms: _67  and  _69
REMARK   29  A    between atoms: _69  and  _70
REMARK   30  A    between atoms: _69  and  _72
REMARK   31  A    between atoms: _72  and  _73
REMARK   32  A    between atoms: _78  and  _80
REMARK   33  A    between atoms: _80  and  _81
REMARK   34  A    between atoms: _80  and  _83
REMARK   35  A    between atoms: _83  and  _84
REMARK   36  A    between atoms: _87  and  _89
REMARK   37  A    between atoms: _89  and  _90
REMARK   38  A    between atoms: _89  and  _92
REMARK   39  A    between atoms: _92  and  _93
REMARK   40  A    between atoms: _93  and  _94
REMARK   41  A    between atoms: _99  and  _101
REMARK   42  A    between atoms: _101  and  _102
REMARK   43  A    between atoms: _101  and  _104
REMARK   44  A    between atoms: _104  and  _105
REMARK   45  A    between atoms: _115  and  _117
REMARK   46  A    between atoms: _117  and  _118
REMARK   47  A    between atoms: _117  and  _120
REMARK   48  A    between atoms: _120  and  _121
REMARK   49  A    between atoms: _124  and  _126
REMARK   50  A    between atoms: _126  and  _127
REMARK   51  A    between atoms: _126  and  _129
REMARK   52  A    between atoms: _129  and  _130
REMARK   53  A    between atoms: _133  and  _135
REMARK   54  A    between atoms: _135  and  _136
REMARK   55  A    between atoms: _135  and  _138
REMARK   56  A    between atoms: _138  and  _139
REMARK   57  A    between atoms: _139  and  _140
REMARK   58  A    between atoms: _142  and  _144
REMARK   59  A    between atoms: _144  and  _145
REMARK   60  A    between atoms: _148  and  _150
REMARK   61  A    between atoms: _150  and  _151
REMARK   62  A    between atoms: _154  and  _156
REMARK   63  A    between atoms: _156  and  _157
REMARK   64  A    between atoms: _156  and  _159
REMARK   65  A    between atoms: _159  and  _160
REMARK   66  A    between atoms: _160  and  _161
REMARK   67  A    between atoms: _163  and  _165
REMARK   68  A    between atoms: _165  and  _166
REMARK   69  A    between atoms: _168  and  _170
REMARK   70  A    between atoms: _170  and  _171
REMARK   71  A    between atoms: _170  and  _173
REMARK   72  A    between atoms: _173  and  _174
REMARK   73  A    between atoms: _177  and  _179
REMARK   74  A    between atoms: _179  and  _180
REMARK   75  A    between atoms: _179  and  _182
REMARK   76  A    between atoms: _182  and  _183
REMARK   77  A    between atoms: _183  and  _184
REMARK   78  A    between atoms: _189  and  _191
REMARK   79  A    between atoms: _191  and  _192
REMARK   80  A    between atoms: _191  and  _194
REMARK   81  A    between atoms: _194  and  _195
REMARK   82  A    between atoms: _195  and  _196
REMARK   83  A    between atoms: _196  and  _197
REMARK   84  A    between atoms: _206  and  _208
REMARK   85  A    between atoms: _208  and  _209
REMARK   86  A    between atoms: _208  and  _211
REMARK   87  A    between atoms: _211  and  _212
REMARK   88  A    between atoms: _218  and  _220
REMARK   89  A    between atoms: _220  and  _221
REMARK   90  A    between atoms: _220  and  _223
REMARK   91  A    between atoms: _223  and  _224
REMARK   92  A    between atoms: _227  and  _229
REMARK   93  A    between atoms: _229  and  _230
REMARK   94  A    between atoms: _229  and  _232
REMARK   95  A    between atoms: _232  and  _233
REMARK   96  A    between atoms: _236  and  _238
REMARK   97  A    between atoms: _238  and  _239
REMARK   98  A    between atoms: _238  and  _241
REMARK   99  A    between atoms: _241  and  _242
REMARK  100  A    between atoms: _246  and  _247
REMARK  101  A    between atoms: _252  and  _254
REMARK  102  A    between atoms: _254  and  _255
REMARK  103  A    between atoms: _254  and  _257
REMARK  104  A    between atoms: _257  and  _258
REMARK  105  A    between atoms: _263  and  _265
REMARK  106  A    between atoms: _265  and  _266
REMARK  107  A    between atoms: _265  and  _268
REMARK  108  A    between atoms: _268  and  _269
REMARK  109  A    between atoms: _272  and  _274
REMARK  110  A    between atoms: _274  and  _275
REMARK  111  A    between atoms: _274  and  _277
REMARK  112  A    between atoms: _277  and  _278
REMARK  113  A    between atoms: _278  and  _279
REMARK  114  A    between atoms: _284  and  _286
REMARK  115  A    between atoms: _286  and  _287
REMARK  116  A    between atoms: _290  and  _292
REMARK  117  A    between atoms: _292  and  _293
REMARK  118  A    between atoms: _295  and  _297
REMARK  119  A    between atoms: _297  and  _298
REMARK  120  A    between atoms: _297  and  _300
REMARK  121  A    between atoms: _300  and  _301
REMARK  122  A    between atoms: _304  and  _306
REMARK  123  A    between atoms: _306  and  _307
REMARK  124  A    between atoms: _306  and  _309
REMARK  125  A    between atoms: _309  and  _310
REMARK  126  A    between atoms: _312  and  _314
REMARK  127  A    between atoms: _314  and  _315
REMARK  128  A    between atoms: _314  and  _317
REMARK  129  A    between atoms: _317  and  _318
REMARK  130  A    between atoms: _323  and  _325
REMARK  131  A    between atoms: _325  and  _326
REMARK  132  A    between atoms: _325  and  _328
REMARK  133  A    between atoms: _328  and  _329
REMARK  134  A    between atoms: _329  and  _330
REMARK  135  A    between atoms: _333  and  _335
REMARK  136  A    between atoms: _335  and  _336
REMARK  137  A    between atoms: _339  and  _341
REMARK  138  A    between atoms: _341  and  _342
REMARK  139  A    between atoms: _341  and  _344
REMARK  140  A    between atoms: _344  and  _345
REMARK  141  A    between atoms: _351  and  _353
REMARK  142  A    between atoms: _353  and  _354
REMARK  143  A    between atoms: _353  and  _356
REMARK  144  A    between atoms: _356  and  _357
REMARK  145  A    between atoms: _360  and  _362
REMARK  146  A    between atoms: _362  and  _363
REMARK  147  A    between atoms: _362  and  _365
REMARK  148  A    between atoms: _365  and  _366
REMARK  149  A    between atoms: _369  and  _371
REMARK  150  A    between atoms: _371  and  _372
REMARK  151  A    between atoms: _371  and  _374
REMARK  152  A    between atoms: _374  and  _375
REMARK  153  A    between atoms: _378  and  _380
REMARK  154  A    between atoms: _380  and  _381
REMARK  155  A    between atoms: _380  and  _383
REMARK  156  A    between atoms: _383  and  _384
REMARK  157  A    between atoms: _387  and  _389
REMARK  158  A    between atoms: _389  and  _390
REMARK  159  A    between atoms: _389  and  _392
REMARK  160  A    between atoms: _392  and  _393
REMARK  161  A    between atoms: _396  and  _398
REMARK  162  A    between atoms: _398  and  _399
REMARK  163  A    between atoms: _402  and  _404
REMARK  164  A    between atoms: _404  and  _405
REMARK  165  A    between atoms: _404  and  _407
REMARK  166  A    between atoms: _407  and  _408
REMARK  167  A    between atoms: _410  and  _412
REMARK  168  A    between atoms: _412  and  _413
REMARK  169  A    between atoms: _412  and  _415
REMARK  170  A    between atoms: _418  and  _420
REMARK  171  A    between atoms: _420  and  _421
REMARK  172  A    between atoms: _420  and  _423
REMARK  173  A    between atoms: _423  and  _424
REMARK  174  A    between atoms: _426  and  _428
REMARK  175  A    between atoms: _428  and  _429
REMARK  176  A    between atoms: _428  and  _431
REMARK  177  A    between atoms: _431  and  _432
REMARK  178  A    between atoms: _438  and  _440
REMARK  179  A    between atoms: _440  and  _441
REMARK  180  A    between atoms: _440  and  _443
REMARK  181  A    between atoms: _443  and  _444
REMARK  182  A    between atoms: _447  and  _449
REMARK  183  A    between atoms: _449  and  _450
REMARK  184  A    between atoms: _449  and  _452
REMARK  185  A    between atoms: _452  and  _453
REMARK  186  A    between atoms: _453  and  _454
REMARK  187  A    between atoms: _456  and  _458
REMARK  188  A    between atoms: _458  and  _459
REMARK  189  A    between atoms: _461  and  _463
REMARK  190  A    between atoms: _463  and  _464
REMARK  191  A    between atoms: _463  and  _466
REMARK  192  A    between atoms: _466  and  _467
REMARK  193  A    between atoms: _470  and  _472
REMARK  194  A    between atoms: _472  and  _473
REMARK  195  A    between atoms: _472  and  _475
REMARK  196  A    between atoms: _475  and  _476
REMARK  197  A    between atoms: _482  and  _484
REMARK  198  A    between atoms: _484  and  _485
REMARK  199  A    between atoms: _487  and  _489
REMARK  200  A    between atoms: _489  and  _490
REMARK  201  A    between atoms: _489  and  _492
REMARK  202  A    between atoms: _492  and  _493
REMARK  203  A    between atoms: _493  and  _494
REMARK  204  A    between atoms: _494  and  _495
REMARK  205  A    between atoms: _495  and  _496
REMARK  206  A    between atoms: _500  and  _502
REMARK  207  A    between atoms: _502  and  _503
REMARK  208  A    between atoms: _505  and  _507
REMARK  209  A    between atoms: _507  and  _508
REMARK  210  A    between atoms: _507  and  _510
REMARK  211  A    between atoms: _513  and  _515
REMARK  212  A    between atoms: _515  and  _516
REMARK  213  A    between atoms: _518  and  _520
REMARK  214  A    between atoms: _520  and  _521
REMARK  215  A    between atoms: _520  and  _523
REMARK  216  A    between atoms: _523  and  _524
REMARK                            x       y       z     vdW  Elec       q    Type
REMARK                         _______ _______ _______ _____ _____    ______ ____
ROOT
ATOM      1  O   HOH     1      19.718  -2.595  -7.067  0.00  0.00    +0.000 OA
ENDROOT
TORSDOF 0
REMARK  Name = ../refined-set-2016/4pp0/4pp0_pocket.pdb
REMARK  216 active torsions:
REMARK  status: ('A' for Active; 'I' for Inactive)
REMARK    1  A    between atoms: _1  and  _3
REMARK    2  A    between atoms: _3  and  _4
REMARK    3  A    between atoms: _3  and  _6
REMARK    4  A    between atoms: _6  and  _7
REMARK    5  A    between atoms: _10  and  _12
REMARK    6  A    between atoms: _12  and  _13
REMARK    7  A    between atoms: _12  and  _15
REMARK    8  A    between atoms: _15  and  _16
REMARK    9  A    between atoms: _16  and  _17
REMARK   10  A    between atoms: _20  and  _22
REMARK   11  A    between atoms: _22  and  _23
REMARK   12  A    between atoms: _25  and  _27
REMARK   13  A    between atoms: _27  and  _28
REMARK   14  A    between atoms: _27  and  _30
REMARK   15  A    between atoms: _30  and  _31
REMARK   16  A    between atoms: _33  and  _35
REMARK   17  A    between atoms: _35  and  _36
REMARK   18  A    between atoms: _35  and  _38
REMARK   19  A    between atoms: _38  and  _39
REMARK   20  A    between atoms: _44  and  _45
REMARK   21  A    between atoms: _47  and  _49
REMARK   22  A    between atoms: _49  and  _50
REMARK   23  A    between atoms: _53  and  _55
REMARK   24  A    between atoms: _55  and  _56
REMARK   25  A    between atoms: _55  and  _58
REMARK   26  A    between atoms: _58  and  _59
REMARK   27  A    between atoms: _64  and  _65
REMARK   28  A    between atoms: _67  and  _69
REMARK   29  A    between atoms: _69  and  _70
REMARK   30  A    between atoms: _69  and  _72
REMARK   31  A    between atoms: _72  and  _73
REMARK   32  A    between atoms: _78  and  _80
REMARK   33  A    between atoms: _80  and  _81
REMARK   34  A    between atoms: _80  and  _83
REMARK   35  A    between atoms: _83  and  _84
REMARK   36  A    between atoms: _87  and  _89
REMARK   37  A    between atoms: _89  and  _90
REMARK   38  A    between atoms: _89  and  _92
REMARK   39  A    between atoms: _92  and  _93
REMARK   40  A    between atoms: _93  and  _94
REMARK   41  A    between atoms: _99  and  _101
REMARK   42  A    between atoms: _101  and  _102
REMARK   43  A    between atoms: _101  and  _104
REMARK   44  A    between atoms: _104  and  _105
REMARK   45  A    between atoms: _115  and  _117
REMARK   46  A    between atoms: _117  and  _118
REMARK   47  A    between atoms: _117  and  _120
REMARK   48  A    between atoms: _120  and  _121
REMARK   49  A    between atoms: _124  and  _126
REMARK   50  A    between atoms: _126  and  _127
REMARK   51  A    between atoms: _126  and  _129
REMARK   52  A    between atoms: _129  and  _130
REMARK   53  A    between atoms: _133  and  _135
REMARK   54  A    between atoms: _135  and  _136
REMARK   55  A    between atoms: _135  and  _138
REMARK   56  A    between atoms: _138  and  _139
REMARK   57  A    between atoms: _139  and  _140
REMARK   58  A    between atoms: _142  and  _144
REMARK   59  A    between atoms: _144  and  _145
REMARK   60  A    between atoms: _148  and  _150
REMARK   61  A    between atoms: _150  and  _151
REMARK   62  A    between atoms: _154  and  _156
REMARK   63  A    between atoms: _156  and  _157
REMARK   64  A    between atoms: _156  and  _159
REMARK   65  A    between atoms: _159  and  _160
REMARK   66  A    between atoms: _160  and  _161
REMARK   67  A    between atoms: _163  and  _165
REMARK   68  A    between atoms: _165  and  _166
REMARK   69  A    between atoms: _168  and  _170
REMARK   70  A    between atoms: _170  and  _171
REMARK   71  A    between atoms: _170  and  _173
REMARK   72  A    between atoms: _173  and  _174
REMARK   73  A    between atoms: _177  and  _179
REMARK   74  A    between atoms: _179  and  _180
REMARK   75  A    between atoms: _179  and  _182
REMARK   76  A    between atoms: _182  and  _183
REMARK   77  A    between atoms: _183  and  _184
REMARK   78  A    between atoms: _189  and  _191
REMARK   79  A    between atoms: _191  and  _192
REMARK   80  A    between atoms: _191  and  _194
REMARK   81  A    between atoms: _194  and  _195
REMARK   82  A    between atoms: _195  and  _196
REMARK   83  A    between atoms: _196  and  _197
REMARK   84  A    between atoms: _206  and  _208
REMARK   85  A    between atoms: _208  and  _209
REMARK   86  A    between atoms: _208  and  _211
REMARK   87  A    between atoms: _211  and  _212
REMARK   88  A    between atoms: _218  and  _220
REMARK   89  A    between atoms: _220  and  _221
REMARK   90  A    between atoms: _220  and  _223
REMARK   91  A    between atoms: _223  and  _224
REMARK   92  A    between atoms: _227  and  _229
REMARK   93  A    between atoms: _229  and  _230
REMARK   94  A    between atoms: _229  and  _232
REMARK   95  A    between atoms: _232  and  _233
REMARK   96  A    between atoms: _236  and  _238
REMARK   97  A    between atoms: _238  and  _239
REMARK   98  A    between atoms: _238  and  _241
REMARK   99  A    between atoms: _241  and  _242
REMARK  100  A    between atoms: _246  and  _247
REMARK  101  A    between atoms: _252  and  _254
REMARK  102  A    between atoms: _254  and  _255
REMARK  103  A    between atoms: _254  and  _257
REMARK  104  A    between atoms: _257  and  _258
REMARK  105  A    between atoms: _263  and  _265
REMARK  106  A    between atoms: _265  and  _266
REMARK  107  A    between atoms: _265  and  _268
REMARK  108  A    between atoms: _268  and  _269
REMARK  109  A    between atoms: _272  and  _274
REMARK  110  A    between atoms: _274  and  _275
REMARK  111  A    between atoms: _274  and  _277
REMARK  112  A    between atoms: _277  and  _278
REMARK  113  A    between atoms: _278  and  _279
REMARK  114  A    between atoms: _284  and  _286
REMARK  115  A    between atoms: _286  and  _287
REMARK  116  A    between atoms: _290  and  _292
REMARK  117  A    between atoms: _292  and  _293
REMARK  118  A    between atoms: _295  and  _297
REMARK  119  A    between atoms: _297  and  _298
REMARK  120  A    between atoms: _297  and  _300
REMARK  121  A    between atoms: _300  and  _301
REMARK  122  A    between atoms: _304  and  _306
REMARK  123  A    between atoms: _306  and  _307
REMARK  124  A    between atoms: _306  and  _309
REMARK  125  A    between atoms: _309  and  _310
REMARK  126  A    between atoms: _312  and  _314
REMARK  127  A    between atoms: _314  and  _315
REMARK  128  A    between atoms: _314  and  _317
REMARK  129  A    between atoms: _317  and  _318
REMARK  130  A    between atoms: _323  and  _325
REMARK  131  A    between atoms: _325  and  _326
REMARK  132  A    between atoms: _325  and  _328
REMARK  133  A    between atoms: _328  and  _329
REMARK  134  A    between atoms: _329  and  _330
REMARK  135  A    between atoms: _333  and  _335
REMARK  136  A    between atoms: _335  and  _336
REMARK  137  A    between atoms: _339  and  _341
REMARK  138  A    between atoms: _341  and  _342
REMARK  139  A    between atoms: _341  and  _344
REMARK  140  A    between atoms: _344  and  _345
REMARK  141  A    between atoms: _351  and  _353
REMARK  142  A    between atoms: _353  and  _354
REMARK  143  A    between atoms: _353  and  _356
REMARK  144  A    between atoms: _356  and  _357
REMARK  145  A    between atoms: _360  and  _362
REMARK  146  A    between atoms: _362  and  _363
REMARK  147  A    between atoms: _362  and  _365
REMARK  148  A    between atoms: _365  and  _366
REMARK  149  A    between atoms: _369  and  _371
REMARK  150  A    between atoms: _371  and  _372
REMARK  151  A    between atoms: _371  and  _374
REMARK  152  A    between atoms: _374  and  _375
REMARK  153  A    between atoms: _378  and  _380
REMARK  154  A    between atoms: _380  and  _381
REMARK  155  A    between atoms: _380  and  _383
REMARK  156  A    between atoms: _383  and  _384
REMARK  157  A    between atoms: _387  and  _389
REMARK  158  A    between atoms: _389  and  _390
REMARK  159  A    between atoms: _389  and  _392
REMARK  160  A    between atoms: _392  and  _393
REMARK  161  A    between atoms: _396  and  _398
REMARK  162  A    between atoms: _398  and  _399
REMARK  163  A    between atoms: _402  and  _404
REMARK  164  A    between atoms: _404  and  _405
REMARK  165  A    between atoms: _404  and  _407
REMARK  166  A    between atoms: _407  and  _408
REMARK  167  A    between atoms: _410  and  _412
REMARK  168  A    between atoms: _412  and  _413
REMARK  169  A    between atoms: _412  and  _415
REMARK  170  A    between atoms: _418  and  _420
REMARK  171  A    between atoms: _420  and  _421
REMARK  172  A    between atoms: _420  and  _423
REMARK  173  A    between atoms: _423  and  _424
REMARK  174  A    between atoms: _426  and  _428
REMARK  175  A    between atoms: _428  and  _429
REMARK  176  A    between atoms: _428  and  _431
REMARK  177  A    between atoms: _431  and  _432
REMARK  178  A    between atoms: _438  and  _440
REMARK  179  A    between atoms: _440  and  _441
REMARK  180  A    between atoms: _440  and  _443
REMARK  181  A    between atoms: _443  and  _444
REMARK  182  A    between atoms: _447  and  _449
REMARK  183  A    between atoms: _449  and  _450
REMARK  184  A    between atoms: _449  and  _452
REMARK  185  A    between atoms: _452  and  _453
REMARK  186  A    between atoms: _453  and  _454
REMARK  187  A    between atoms: _456  and  _458
REMARK  188  A    between atoms: _458  and  _459
REMARK  189  A    between atoms: _461  and  _463
REMARK  190  A    between atoms: _463  and  _464
REMARK  191  A    between atoms: _463  and  _466
REMARK  192  A    between atoms: _466  and  _467
REMARK  193  A    between atoms: _470  and  _472
REMARK  194  A    between atoms: _472  and  _473
REMARK  195  A    between atoms: _472  and  _475
REMARK  196  A    between atoms: _475  and  _476
REMARK  197  A    between atoms: _482  and  _484
REMARK  198  A    between atoms: _484  and  _485
REMARK  199  A    between atoms: _487  and  _489
REMARK  200  A    between atoms: _489  and  _490
REMARK  201  A    between atoms: _489  and  _492
REMARK  202  A    between atoms: _492  and  _493
REMARK  203  A    between atoms: _493  and  _494
REMARK  204  A    between atoms: _494  and  _495
REMARK  205  A    between atoms: _495  and  _496
REMARK  206  A    between atoms: _500  and  _502
REMARK  207  A    between atoms: _502  and  _503
REMARK  208  A    between atoms: _505  and  _507
REMARK  209  A    between atoms: _507  and  _508
REMARK  210  A    between atoms: _507  and  _510
REMARK  211  A    between atoms: _513  and  _515
REMARK  212  A    between atoms: _515  and  _516
REMARK  213  A    between atoms: _518  and  _520
REMARK  214  A    between atoms: _520  and  _521
REMARK  215  A    between atoms: _520  and  _523
REMARK  216  A    between atoms: _523  and  _524
REMARK                            x       y       z     vdW  Elec       q    Type
REMARK                         _______ _______ _______ _____ _____    ______ ____
ROOT
ATOM      1  O   HOH     1      22.237  -4.467 -12.080  0.00  0.00    +0.000 OA
ENDROOT
TORSDOF 0
REMARK  Name = ../refined-set-2016/4pp0/4pp0_pocket.pdb
REMARK  216 active torsions:
REMARK  status: ('A' for Active; 'I' for Inactive)
REMARK    1  A    between atoms: _1  and  _3
REMARK    2  A    between atoms: _3  and  _4
REMARK    3  A    between atoms: _3  and  _6
REMARK    4  A    between atoms: _6  and  _7
REMARK    5  A    between atoms: _10  and  _12
REMARK    6  A    between atoms: _12  and  _13
REMARK    7  A    between atoms: _12  and  _15
REMARK    8  A    between atoms: _15  and  _16
REMARK    9  A    between atoms: _16  and  _17
REMARK   10  A    between atoms: _20  and  _22
REMARK   11  A    between atoms: _22  and  _23
REMARK   12  A    between atoms: _25  and  _27
REMARK   13  A    between atoms: _27  and  _28
REMARK   14  A    between atoms: _27  and  _30
REMARK   15  A    between atoms: _30  and  _31
REMARK   16  A    between atoms: _33  and  _35
REMARK   17  A    between atoms: _35  and  _36
REMARK   18  A    between atoms: _35  and  _38
REMARK   19  A    between atoms: _38  and  _39
REMARK   20  A    between atoms: _44  and  _45
REMARK   21  A    between atoms: _47  and  _49
REMARK   22  A    between atoms: _49  and  _50
REMARK   23  A    between atoms: _53  and  _55
REMARK   24  A    between atoms: _55  and  _56
REMARK   25  A    between atoms: _55  and  _58
REMARK   26  A    between atoms: _58  and  _59
REMARK   27  A    between atoms: _64  and  _65
REMARK   28  A    between atoms: _67  and  _69
REMARK   29  A    between atoms: _69  and  _70
REMARK   30  A    between atoms: _69  and  _72
REMARK   31  A    between atoms: _72  and  _73
REMARK   32  A    between atoms: _78  and  _80
REMARK   33  A    between atoms: _80  and  _81
REMARK   34  A    between atoms: _80  and  _83
REMARK   35  A    between atoms: _83  and  _84
REMARK   36  A    between atoms: _87  and  _89
REMARK   37  A    between atoms: _89  and  _90
REMARK   38  A    between atoms: _89  and  _92
REMARK   39  A    between atoms: _92  and  _93
REMARK   40  A    between atoms: _93  and  _94
REMARK   41  A    between atoms: _99  and  _101
REMARK   42  A    between atoms: _101  and  _102
REMARK   43  A    between atoms: _101  and  _104
REMARK   44  A    between atoms: _104  and  _105
REMARK   45  A    between atoms: _115  and  _117
REMARK   46  A    between atoms: _117  and  _118
REMARK   47  A    between atoms: _117  and  _120
REMARK   48  A    between atoms: _120  and  _121
REMARK   49  A    between atoms: _124  and  _126
REMARK   50  A    between atoms: _126  and  _127
REMARK   51  A    between atoms: _126  and  _129
REMARK   52  A    between atoms: _129  and  _130
REMARK   53  A    between atoms: _133  and  _135
REMARK   54  A    between atoms: _135  and  _136
REMARK   55  A    between atoms: _135  and  _138
REMARK   56  A    between atoms: _138  and  _139
REMARK   57  A    between atoms: _139  and  _140
REMARK   58  A    between atoms: _142  and  _144
REMARK   59  A    between atoms: _144  and  _145
REMARK   60  A    between atoms: _148  and  _150
REMARK   61  A    between atoms: _150  and  _151
REMARK   62  A    between atoms: _154  and  _156
REMARK   63  A    between atoms: _156  and  _157
REMARK   64  A    between atoms: _156  and  _159
REMARK   65  A    between atoms: _159  and  _160
REMARK   66  A    between atoms: _160  and  _161
REMARK   67  A    between atoms: _163  and  _165
REMARK   68  A    between atoms: _165  and  _166
REMARK   69  A    between atoms: _168  and  _170
REMARK   70  A    between atoms: _170  and  _171
REMARK   71  A    between atoms: _170  and  _173
REMARK   72  A    between atoms: _173  and  _174
REMARK   73  A    between atoms: _177  and  _179
REMARK   74  A    between atoms: _179  and  _180
REMARK   75  A    between atoms: _179  and  _182
REMARK   76  A    between atoms: _182  and  _183
REMARK   77  A    between atoms: _183  and  _184
REMARK   78  A    between atoms: _189  and  _191
REMARK   79  A    between atoms: _191  and  _192
REMARK   80  A    between atoms: _191  and  _194
REMARK   81  A    between atoms: _194  and  _195
REMARK   82  A    between atoms: _195  and  _196
REMARK   83  A    between atoms: _196  and  _197
REMARK   84  A    between atoms: _206  and  _208
REMARK   85  A    between atoms: _208  and  _209
REMARK   86  A    between atoms: _208  and  _211
REMARK   87  A    between atoms: _211  and  _212
REMARK   88  A    between atoms: _218  and  _220
REMARK   89  A    between atoms: _220  and  _221
REMARK   90  A    between atoms: _220  and  _223
REMARK   91  A    between atoms: _223  and  _224
REMARK   92  A    between atoms: _227  and  _229
REMARK   93  A    between atoms: _229  and  _230
REMARK   94  A    between atoms: _229  and  _232
REMARK   95  A    between atoms: _232  and  _233
REMARK   96  A    between atoms: _236  and  _238
REMARK   97  A    between atoms: _238  and  _239
REMARK   98  A    between atoms: _238  and  _241
REMARK   99  A    between atoms: _241  and  _242
REMARK  100  A    between atoms: _246  and  _247
REMARK  101  A    between atoms: _252  and  _254
REMARK  102  A    between atoms: _254  and  _255
REMARK  103  A    between atoms: _254  and  _257
REMARK  104  A    between atoms: _257  and  _258
REMARK  105  A    between atoms: _263  and  _265
REMARK  106  A    between atoms: _265  and  _266
REMARK  107  A    between atoms: _265  and  _268
REMARK  108  A    between atoms: _268  and  _269
REMARK  109  A    between atoms: _272  and  _274
REMARK  110  A    between atoms: _274  and  _275
REMARK  111  A    between atoms: _274  and  _277
REMARK  112  A    between atoms: _277  and  _278
REMARK  113  A    between atoms: _278  and  _279
REMARK  114  A    between atoms: _284  and  _286
REMARK  115  A    between atoms: _286  and  _287
REMARK  116  A    between atoms: _290  and  _292
REMARK  117  A    between atoms: _292  and  _293
REMARK  118  A    between atoms: _295  and  _297
REMARK  119  A    between atoms: _297  and  _298
REMARK  120  A    between atoms: _297  and  _300
REMARK  121  A    between atoms: _300  and  _301
REMARK  122  A    between atoms: _304  and  _306
REMARK  123  A    between atoms: _306  and  _307
REMARK  124  A    between atoms: _306  and  _309
REMARK  125  A    between atoms: _309  and  _310
REMARK  126  A    between atoms: _312  and  _314
REMARK  127  A    between atoms: _314  and  _315
REMARK  128  A    between atoms: _314  and  _317
REMARK  129  A    between atoms: _317  and  _318
REMARK  130  A    between atoms: _323  and  _325
REMARK  131  A    between atoms: _325  and  _326
REMARK  132  A    between atoms: _325  and  _328
REMARK  133  A    between atoms: _328  and  _329
REMARK  134  A    between atoms: _329  and  _330
REMARK  135  A    between atoms: _333  and  _335
REMARK  136  A    between atoms: _335  and  _336
REMARK  137  A    between atoms: _339  and  _341
REMARK  138  A    between atoms: _341  and  _342
REMARK  139  A    between atoms: _341  and  _344
REMARK  140  A    between atoms: _344  and  _345
REMARK  141  A    between atoms: _351  and  _353
REMARK  142  A    between atoms: _353  and  _354
REMARK  143  A    between atoms: _353  and  _356
REMARK  144  A    between atoms: _356  and  _357
REMARK  145  A    between atoms: _360  and  _362
REMARK  146  A    between atoms: _362  and  _363
REMARK  147  A    between atoms: _362  and  _365
REMARK  148  A    between atoms: _365  and  _366
REMARK  149  A    between atoms: _369  and  _371
REMARK  150  A    between atoms: _371  and  _372
REMARK  151  A    between atoms: _371  and  _374
REMARK  152  A    between atoms: _374  and  _375
REMARK  153  A    between atoms: _378  and  _380
REMARK  154  A    between atoms: _380  and  _381
REMARK  155  A    between atoms: _380  and  _383
REMARK  156  A    between atoms: _383  and  _384
REMARK  157  A    between atoms: _387  and  _389
REMARK  158  A    between atoms: _389  and  _390
REMARK  159  A    between atoms: _389  and  _392
REMARK  160  A    between atoms: _392  and  _393
REMARK  161  A    between atoms: _396  and  _398
REMARK  162  A    between atoms: _398  and  _399
REMARK  163  A    between atoms: _402  and  _404
REMARK  164  A    between atoms: _404  and  _405
REMARK  165  A    between atoms: _404  and  _407
REMARK  166  A    between atoms: _407  and  _408
REMARK  167  A    between atoms: _410  and  _412
REMARK  168  A    between atoms: _412  and  _413
REMARK  169  A    between atoms: _412  and  _415
REMARK  170  A    between atoms: _418  and  _420
REMARK  171  A    between atoms: _420  and  _421
REMARK  172  A    between atoms: _420  and  _423
REMARK  173  A    between atoms: _423  and  _424
REMARK  174  A    between atoms: _426  and  _428
REMARK  175  A    between atoms: _428  and  _429
REMARK  176  A    between atoms: _428  and  _431
REMARK  177  A    between atoms: _431  and  _432
REMARK  178  A    between atoms: _438  and  _440
REMARK  179  A    between atoms: _440  and  _441
REMARK  180  A    between atoms: _440  and  _443
REMARK  181  A    between atoms: _443  and  _444
REMARK  182  A    between atoms: _447  and  _449
REMARK  183  A    between atoms: _449  and  _450
REMARK  184  A    between atoms: _449  and  _452
REMARK  185  A    between atoms: _452  and  _453
REMARK  186  A    between atoms: _453  and  _454
REMARK  187  A    between atoms: _456  and  _458
REMARK  188  A    between atoms: _458  and  _459
REMARK  189  A    between atoms: _461  and  _463
REMARK  190  A    between atoms: _463  and  _464
REMARK  191  A    between atoms: _463  and  _466
REMARK  192  A    between atoms: _466  and  _467
REMARK  193  A    between atoms: _470  and  _472
REMARK  194  A    between atoms: _472  and  _473
REMARK  195  A    between atoms: _472  and  _475
REMARK  196  A    between atoms: _475  and  _476
REMARK  197  A    between atoms: _482  and  _484
REMARK  198  A    between atoms: _484  and  _485
REMARK  199  A    between atoms: _487  and  _489
REMARK  200  A    between atoms: _489  and  _490
REMARK  201  A    between atoms: _489  and  _492
REMARK  202  A    between atoms: _492  and  _493
REMARK  203  A    between atoms: _493  and  _494
REMARK  204  A    between atoms: _494  and  _495
REMARK  205  A    between atoms: _495  and  _496
REMARK  206  A    between atoms: _500  and  _502
REMARK  207  A    between atoms: _502  and  _503
REMARK  208  A    between atoms: _505  and  _507
REMARK  209  A    between atoms: _507  and  _508
REMARK  210  A    between atoms: _507  and  _510
REMARK  211  A    between atoms: _513  and  _515
REMARK  212  A    between atoms: _515  and  _516
REMARK  213  A    between atoms: _518  and  _520
REMARK  214  A    between atoms: _520  and  _521
REMARK  215  A    between atoms: _520  and  _523
REMARK  216  A    between atoms: _523  and  _524
REMARK                            x       y       z     vdW  Elec       q    Type
REMARK                         _______ _______ _______ _____ _____    ______ ____
ROOT
ATOM      1  O   HOH     1      20.274  -7.025 -15.790  0.00  0.00    +0.000 OA
ENDROOT
TORSDOF 0
REMARK  Name = ../refined-set-2016/4pp0/4pp0_pocket.pdb
REMARK  216 active torsions:
REMARK  status: ('A' for Active; 'I' for Inactive)
REMARK    1  A    between atoms: _1  and  _3
REMARK    2  A    between atoms: _3  and  _4
REMARK    3  A    between atoms: _3  and  _6
REMARK    4  A    between atoms: _6  and  _7
REMARK    5  A    between atoms: _10  and  _12
REMARK    6  A    between atoms: _12  and  _13
REMARK    7  A    between atoms: _12  and  _15
REMARK    8  A    between atoms: _15  and  _16
REMARK    9  A    between atoms: _16  and  _17
REMARK   10  A    between atoms: _20  and  _22
REMARK   11  A    between atoms: _22  and  _23
REMARK   12  A    between atoms: _25  and  _27
REMARK   13  A    between atoms: _27  and  _28
REMARK   14  A    between atoms: _27  and  _30
REMARK   15  A    between atoms: _30  and  _31
REMARK   16  A    between atoms: _33  and  _35
REMARK   17  A    between atoms: _35  and  _36
REMARK   18  A    between atoms: _35  and  _38
REMARK   19  A    between atoms: _38  and  _39
REMARK   20  A    between atoms: _44  and  _45
REMARK   21  A    between atoms: _47  and  _49
REMARK   22  A    between atoms: _49  and  _50
REMARK   23  A    between atoms: _53  and  _55
REMARK   24  A    between atoms: _55  and  _56
REMARK   25  A    between atoms: _55  and  _58
REMARK   26  A    between atoms: _58  and  _59
REMARK   27  A    between atoms: _64  and  _65
REMARK   28  A    between atoms: _67  and  _69
REMARK   29  A    between atoms: _69  and  _70
REMARK   30  A    between atoms: _69  and  _72
REMARK   31  A    between atoms: _72  and  _73
REMARK   32  A    between atoms: _78  and  _80
REMARK   33  A    between atoms: _80  and  _81
REMARK   34  A    between atoms: _80  and  _83
REMARK   35  A    between atoms: _83  and  _84
REMARK   36  A    between atoms: _87  and  _89
REMARK   37  A    between atoms: _89  and  _90
REMARK   38  A    between atoms: _89  and  _92
REMARK   39  A    between atoms: _92  and  _93
REMARK   40  A    between atoms: _93  and  _94
REMARK   41  A    between atoms: _99  and  _101
REMARK   42  A    between atoms: _101  and  _102
REMARK   43  A    between atoms: _101  and  _104
REMARK   44  A    between atoms: _104  and  _105
REMARK   45  A    between atoms: _115  and  _117
REMARK   46  A    between atoms: _117  and  _118
REMARK   47  A    between atoms: _117  and  _120
REMARK   48  A    between atoms: _120  and  _121
REMARK   49  A    between atoms: _124  and  _126
REMARK   50  A    between atoms: _126  and  _127
REMARK   51  A    between atoms: _126  and  _129
REMARK   52  A    between atoms: _129  and  _130
REMARK   53  A    between atoms: _133  and  _135
REMARK   54  A    between atoms: _135  and  _136
REMARK   55  A    between atoms: _135  and  _138
REMARK   56  A    between atoms: _138  and  _139
REMARK   57  A    between atoms: _139  and  _140
REMARK   58  A    between atoms: _142  and  _144
REMARK   59  A    between atoms: _144  and  _145
REMARK   60  A    between atoms: _148  and  _150
REMARK   61  A    between atoms: _150  and  _151
REMARK   62  A    between atoms: _154  and  _156
REMARK   63  A    between atoms: _156  and  _157
REMARK   64  A    between atoms: _156  and  _159
REMARK   65  A    between atoms: _159  and  _160
REMARK   66  A    between atoms: _160  and  _161
REMARK   67  A    between atoms: _163  and  _165
REMARK   68  A    between atoms: _165  and  _166
REMARK   69  A    between atoms: _168  and  _170
REMARK   70  A    between atoms: _170  and  _171
REMARK   71  A    between atoms: _170  and  _173
REMARK   72  A    between atoms: _173  and  _174
REMARK   73  A    between atoms: _177  and  _179
REMARK   74  A    between atoms: _179  and  _180
REMARK   75  A    between atoms: _179  and  _182
REMARK   76  A    between atoms: _182  and  _183
REMARK   77  A    between atoms: _183  and  _184
REMARK   78  A    between atoms: _189  and  _191
REMARK   79  A    between atoms: _191  and  _192
REMARK   80  A    between atoms: _191  and  _194
REMARK   81  A    between atoms: _194  and  _195
REMARK   82  A    between atoms: _195  and  _196
REMARK   83  A    between atoms: _196  and  _197
REMARK   84  A    between atoms: _206  and  _208
REMARK   85  A    between atoms: _208  and  _209
REMARK   86  A    between atoms: _208  and  _211
REMARK   87  A    between atoms: _211  and  _212
REMARK   88  A    between atoms: _218  and  _220
REMARK   89  A    between atoms: _220  and  _221
REMARK   90  A    between atoms: _220  and  _223
REMARK   91  A    between atoms: _223  and  _224
REMARK   92  A    between atoms: _227  and  _229
REMARK   93  A    between atoms: _229  and  _230
REMARK   94  A    between atoms: _229  and  _232
REMARK   95  A    between atoms: _232  and  _233
REMARK   96  A    between atoms: _236  and  _238
REMARK   97  A    between atoms: _238  and  _239
REMARK   98  A    between atoms: _238  and  _241
REMARK   99  A    between atoms: _241  and  _242
REMARK  100  A    between atoms: _246  and  _247
REMARK  101  A    between atoms: _252  and  _254
REMARK  102  A    between atoms: _254  and  _255
REMARK  103  A    between atoms: _254  and  _257
REMARK  104  A    between atoms: _257  and  _258
REMARK  105  A    between atoms: _263  and  _265
REMARK  106  A    between atoms: _265  and  _266
REMARK  107  A    between atoms: _265  and  _268
REMARK  108  A    between atoms: _268  and  _269
REMARK  109  A    between atoms: _272  and  _274
REMARK  110  A    between atoms: _274  and  _275
REMARK  111  A    between atoms: _274  and  _277
REMARK  112  A    between atoms: _277  and  _278
REMARK  113  A    between atoms: _278  and  _279
REMARK  114  A    between atoms: _284  and  _286
REMARK  115  A    between atoms: _286  and  _287
REMARK  116  A    between atoms: _290  and  _292
REMARK  117  A    between atoms: _292  and  _293
REMARK  118  A    between atoms: _295  and  _297
REMARK  119  A    between atoms: _297  and  _298
REMARK  120  A    between atoms: _297  and  _300
REMARK  121  A    between atoms: _300  and  _301
REMARK  122  A    between atoms: _304  and  _306
REMARK  123  A    between atoms: _306  and  _307
REMARK  124  A    between atoms: _306  and  _309
REMARK  125  A    between atoms: _309  and  _310
REMARK  126  A    between atoms: _312  and  _314
REMARK  127  A    between atoms: _314  and  _315
REMARK  128  A    between atoms: _314  and  _317
REMARK  129  A    between atoms: _317  and  _318
REMARK  130  A    between atoms: _323  and  _325
REMARK  131  A    between atoms: _325  and  _326
REMARK  132  A    between atoms: _325  and  _328
REMARK  133  A    between atoms: _328  and  _329
REMARK  134  A    between atoms: _329  and  _330
REMARK  135  A    between atoms: _333  and  _335
REMARK  136  A    between atoms: _335  and  _336
REMARK  137  A    between atoms: _339  and  _341
REMARK  138  A    between atoms: _341  and  _342
REMARK  139  A    between atoms: _341  and  _344
REMARK  140  A    between atoms: _344  and  _345
REMARK  141  A    between atoms: _351  and  _353
REMARK  142  A    between atoms: _353  and  _354
REMARK  143  A    between atoms: _353  and  _356
REMARK  144  A    between atoms: _356  and  _357
REMARK  145  A    between atoms: _360  and  _362
REMARK  146  A    between atoms: _362  and  _363
REMARK  147  A    between atoms: _362  and  _365
REMARK  148  A    between atoms: _365  and  _366
REMARK  149  A    between atoms: _369  and  _371
REMARK  150  A    between atoms: _371  and  _372
REMARK  151  A    between atoms: _371  and  _374
REMARK  152  A    between atoms: _374  and  _375
REMARK  153  A    between atoms: _378  and  _380
REMARK  154  A    between atoms: _380  and  _381
REMARK  155  A    between atoms: _380  and  _383
REMARK  156  A    between atoms: _383  and  _384
REMARK  157  A    between atoms: _387  and  _389
REMARK  158  A    between atoms: _389  and  _390
REMARK  159  A    between atoms: _389  and  _392
REMARK  160  A    between atoms: _392  and  _393
REMARK  161  A    between atoms: _396  and  _398
REMARK  162  A    between atoms: _398  and  _399
REMARK  163  A    between atoms: _402  and  _404
REMARK  164  A    between atoms: _404  and  _405
REMARK  165  A    between atoms: _404  and  _407
REMARK  166  A    between atoms: _407  and  _408
REMARK  167  A    between atoms: _410  and  _412
REMARK  168  A    between atoms: _412  and  _413
REMARK  169  A    between atoms: _412  and  _415
REMARK  170  A    between atoms: _418  and  _420
REMARK  171  A    between atoms: _420  and  _421
REMARK  172  A    between atoms: _420  and  _423
REMARK  173  A    between atoms: _423  and  _424
REMARK  174  A    between atoms: _426  and  _428
REMARK  175  A    between atoms: _428  and  _429
REMARK  176  A    between atoms: _428  and  _431
REMARK  177  A    between atoms: _431  and  _432
REMARK  178  A    between atoms: _438  and  _440
REMARK  179  A    between atoms: _440  and  _441
REMARK  180  A    between atoms: _440  and  _443
REMARK  181  A    between atoms: _443  and  _444
REMARK  182  A    between atoms: _447  and  _449
REMARK  183  A    between atoms: _449  and  _450
REMARK  184  A    between atoms: _449  and  _452
REMARK  185  A    between atoms: _452  and  _453
REMARK  186  A    between atoms: _453  and  _454
REMARK  187  A    between atoms: _456  and  _458
REMARK  188  A    between atoms: _458  and  _459
REMARK  189  A    between atoms: _461  and  _463
REMARK  190  A    between atoms: _463  and  _464
REMARK  191  A    between atoms: _463  and  _466
REMARK  192  A    between atoms: _466  and  _467
REMARK  193  A    between atoms: _470  and  _472
REMARK  194  A    between atoms: _472  and  _473
REMARK  195  A    between atoms: _472  and  _475
REMARK  196  A    between atoms: _475  and  _476
REMARK  197  A    between atoms: _482  and  _484
REMARK  198  A    between atoms: _484  and  _485
REMARK  199  A    between atoms: _487  and  _489
REMARK  200  A    between atoms: _489  and  _490
REMARK  201  A    between atoms: _489  and  _492
REMARK  202  A    between atoms: _492  and  _493
REMARK  203  A    between atoms: _493  and  _494
REMARK  204  A    between atoms: _494  and  _495
REMARK  205  A    between atoms: _495  and  _496
REMARK  206  A    between atoms: _500  and  _502
REMARK  207  A    between atoms: _502  and  _503
REMARK  208  A    between atoms: _505  and  _507
REMARK  209  A    between atoms: _507  and  _508
REMARK  210  A    between atoms: _507  and  _510
REMARK  211  A    between atoms: _513  and  _515
REMARK  212  A    between atoms: _515  and  _516
REMARK  213  A    between atoms: _518  and  _520
REMARK  214  A    between atoms: _520  and  _521
REMARK  215  A    between atoms: _520  and  _523
REMARK  216  A    between atoms: _523  and  _524
REMARK                            x       y       z     vdW  Elec       q    Type
REMARK                         _______ _______ _______ _____ _____    ______ ____
ROOT
ATOM      1  O   HOH     1       8.384  -7.902  -6.982  0.00  0.00    +0.000 OA
ENDROOT
TORSDOF 0
REMARK  Name = ../refined-set-2016/4pp0/4pp0_pocket.pdb
REMARK  216 active torsions:
REMARK  status: ('A' for Active; 'I' for Inactive)
REMARK    1  A    between atoms: _1  and  _3
REMARK    2  A    between atoms: _3  and  _4
REMARK    3  A    between atoms: _3  and  _6
REMARK    4  A    between atoms: _6  and  _7
REMARK    5  A    between atoms: _10  and  _12
REMARK    6  A    between atoms: _12  and  _13
REMARK    7  A    between atoms: _12  and  _15
REMARK    8  A    between atoms: _15  and  _16
REMARK    9  A    between atoms: _16  and  _17
REMARK   10  A    between atoms: _20  and  _22
REMARK   11  A    between atoms: _22  and  _23
REMARK   12  A    between atoms: _25  and  _27
REMARK   13  A    between atoms: _27  and  _28
REMARK   14  A    between atoms: _27  and  _30
REMARK   15  A    between atoms: _30  and  _31
REMARK   16  A    between atoms: _33  and  _35
REMARK   17  A    between atoms: _35  and  _36
REMARK   18  A    between atoms: _35  and  _38
REMARK   19  A    between atoms: _38  and  _39
REMARK   20  A    between atoms: _44  and  _45
REMARK   21  A    between atoms: _47  and  _49
REMARK   22  A    between atoms: _49  and  _50
REMARK   23  A    between atoms: _53  and  _55
REMARK   24  A    between atoms: _55  and  _56
REMARK   25  A    between atoms: _55  and  _58
REMARK   26  A    between atoms: _58  and  _59
REMARK   27  A    between atoms: _64  and  _65
REMARK   28  A    between atoms: _67  and  _69
REMARK   29  A    between atoms: _69  and  _70
REMARK   30  A    between atoms: _69  and  _72
REMARK   31  A    between atoms: _72  and  _73
REMARK   32  A    between atoms: _78  and  _80
REMARK   33  A    between atoms: _80  and  _81
REMARK   34  A    between atoms: _80  and  _83
REMARK   35  A    between atoms: _83  and  _84
REMARK   36  A    between atoms: _87  and  _89
REMARK   37  A    between atoms: _89  and  _90
REMARK   38  A    between atoms: _89  and  _92
REMARK   39  A    between atoms: _92  and  _93
REMARK   40  A    between atoms: _93  and  _94
REMARK   41  A    between atoms: _99  and  _101
REMARK   42  A    between atoms: _101  and  _102
REMARK   43  A    between atoms: _101  and  _104
REMARK   44  A    between atoms: _104  and  _105
REMARK   45  A    between atoms: _115  and  _117
REMARK   46  A    between atoms: _117  and  _118
REMARK   47  A    between atoms: _117  and  _120
REMARK   48  A    between atoms: _120  and  _121
REMARK   49  A    between atoms: _124  and  _126
REMARK   50  A    between atoms: _126  and  _127
REMARK   51  A    between atoms: _126  and  _129
REMARK   52  A    between atoms: _129  and  _130
REMARK   53  A    between atoms: _133  and  _135
REMARK   54  A    between atoms: _135  and  _136
REMARK   55  A    between atoms: _135  and  _138
REMARK   56  A    between atoms: _138  and  _139
REMARK   57  A    between atoms: _139  and  _140
REMARK   58  A    between atoms: _142  and  _144
REMARK   59  A    between atoms: _144  and  _145
REMARK   60  A    between atoms: _148  and  _150
REMARK   61  A    between atoms: _150  and  _151
REMARK   62  A    between atoms: _154  and  _156
REMARK   63  A    between atoms: _156  and  _157
REMARK   64  A    between atoms: _156  and  _159
REMARK   65  A    between atoms: _159  and  _160
REMARK   66  A    between atoms: _160  and  _161
REMARK   67  A    between atoms: _163  and  _165
REMARK   68  A    between atoms: _165  and  _166
REMARK   69  A    between atoms: _168  and  _170
REMARK   70  A    between atoms: _170  and  _171
REMARK   71  A    between atoms: _170  and  _173
REMARK   72  A    between atoms: _173  and  _174
REMARK   73  A    between atoms: _177  and  _179
REMARK   74  A    between atoms: _179  and  _180
REMARK   75  A    between atoms: _179  and  _182
REMARK   76  A    between atoms: _182  and  _183
REMARK   77  A    between atoms: _183  and  _184
REMARK   78  A    between atoms: _189  and  _191
REMARK   79  A    between atoms: _191  and  _192
REMARK   80  A    between atoms: _191  and  _194
REMARK   81  A    between atoms: _194  and  _195
REMARK   82  A    between atoms: _195  and  _196
REMARK   83  A    between atoms: _196  and  _197
REMARK   84  A    between atoms: _206  and  _208
REMARK   85  A    between atoms: _208  and  _209
REMARK   86  A    between atoms: _208  and  _211
REMARK   87  A    between atoms: _211  and  _212
REMARK   88  A    between atoms: _218  and  _220
REMARK   89  A    between atoms: _220  and  _221
REMARK   90  A    between atoms: _220  and  _223
REMARK   91  A    between atoms: _223  and  _224
REMARK   92  A    between atoms: _227  and  _229
REMARK   93  A    between atoms: _229  and  _230
REMARK   94  A    between atoms: _229  and  _232
REMARK   95  A    between atoms: _232  and  _233
REMARK   96  A    between atoms: _236  and  _238
REMARK   97  A    between atoms: _238  and  _239
REMARK   98  A    between atoms: _238  and  _241
REMARK   99  A    between atoms: _241  and  _242
REMARK  100  A    between atoms: _246  and  _247
REMARK  101  A    between atoms: _252  and  _254
REMARK  102  A    between atoms: _254  and  _255
REMARK  103  A    between atoms: _254  and  _257
REMARK  104  A    between atoms: _257  and  _258
REMARK  105  A    between atoms: _263  and  _265
REMARK  106  A    between atoms: _265  and  _266
REMARK  107  A    between atoms: _265  and  _268
REMARK  108  A    between atoms: _268  and  _269
REMARK  109  A    between atoms: _272  and  _274
REMARK  110  A    between atoms: _274  and  _275
REMARK  111  A    between atoms: _274  and  _277
REMARK  112  A    between atoms: _277  and  _278
REMARK  113  A    between atoms: _278  and  _279
REMARK  114  A    between atoms: _284  and  _286
REMARK  115  A    between atoms: _286  and  _287
REMARK  116  A    between atoms: _290  and  _292
REMARK  117  A    between atoms: _292  and  _293
REMARK  118  A    between atoms: _295  and  _297
REMARK  119  A    between atoms: _297  and  _298
REMARK  120  A    between atoms: _297  and  _300
REMARK  121  A    between atoms: _300  and  _301
REMARK  122  A    between atoms: _304  and  _306
REMARK  123  A    between atoms: _306  and  _307
REMARK  124  A    between atoms: _306  and  _309
REMARK  125  A    between atoms: _309  and  _310
REMARK  126  A    between atoms: _312  and  _314
REMARK  127  A    between atoms: _314  and  _315
REMARK  128  A    between atoms: _314  and  _317
REMARK  129  A    between atoms: _317  and  _318
REMARK  130  A    between atoms: _323  and  _325
REMARK  131  A    between atoms: _325  and  _326
REMARK  132  A    between atoms: _325  and  _328
REMARK  133  A    between atoms: _328  and  _329
REMARK  134  A    between atoms: _329  and  _330
REMARK  135  A    between atoms: _333  and  _335
REMARK  136  A    between atoms: _335  and  _336
REMARK  137  A    between atoms: _339  and  _341
REMARK  138  A    between atoms: _341  and  _342
REMARK  139  A    between atoms: _341  and  _344
REMARK  140  A    between atoms: _344  and  _345
REMARK  141  A    between atoms: _351  and  _353
REMARK  142  A    between atoms: _353  and  _354
REMARK  143  A    between atoms: _353  and  _356
REMARK  144  A    between atoms: _356  and  _357
REMARK  145  A    between atoms: _360  and  _362
REMARK  146  A    between atoms: _362  and  _363
REMARK  147  A    between atoms: _362  and  _365
REMARK  148  A    between atoms: _365  and  _366
REMARK  149  A    between atoms: _369  and  _371
REMARK  150  A    between atoms: _371  and  _372
REMARK  151  A    between atoms: _371  and  _374
REMARK  152  A    between atoms: _374  and  _375
REMARK  153  A    between atoms: _378  and  _380
REMARK  154  A    between atoms: _380  and  _381
REMARK  155  A    between atoms: _380  and  _383
REMARK  156  A    between atoms: _383  and  _384
REMARK  157  A    between atoms: _387  and  _389
REMARK  158  A    between atoms: _389  and  _390
REMARK  159  A    between atoms: _389  and  _392
REMARK  160  A    between atoms: _392  and  _393
REMARK  161  A    between atoms: _396  and  _398
REMARK  162  A    between atoms: _398  and  _399
REMARK  163  A    between atoms: _402  and  _404
REMARK  164  A    between atoms: _404  and  _405
REMARK  165  A    between atoms: _404  and  _407
REMARK  166  A    between atoms: _407  and  _408
REMARK  167  A    between atoms: _410  and  _412
REMARK  168  A    between atoms: _412  and  _413
REMARK  169  A    between atoms: _412  and  _415
REMARK  170  A    between atoms: _418  and  _420
REMARK  171  A    between atoms: _420  and  _421
REMARK  172  A    between atoms: _420  and  _423
REMARK  173  A    between atoms: _423  and  _424
REMARK  174  A    between atoms: _426  and  _428
REMARK  175  A    between atoms: _428  and  _429
REMARK  176  A    between atoms: _428  and  _431
REMARK  177  A    between atoms: _431  and  _432
REMARK  178  A    between atoms: _438  and  _440
REMARK  179  A    between atoms: _440  and  _441
REMARK  180  A    between atoms: _440  and  _443
REMARK  181  A    between atoms: _443  and  _444
REMARK  182  A    between atoms: _447  and  _449
REMARK  183  A    between atoms: _449  and  _450
REMARK  184  A    between atoms: _449  and  _452
REMARK  185  A    between atoms: _452  and  _453
REMARK  186  A    between atoms: _453  and  _454
REMARK  187  A    between atoms: _456  and  _458
REMARK  188  A    between atoms: _458  and  _459
REMARK  189  A    between atoms: _461  and  _463
REMARK  190  A    between atoms: _463  and  _464
REMARK  191  A    between atoms: _463  and  _466
REMARK  192  A    between atoms: _466  and  _467
REMARK  193  A    between atoms: _470  and  _472
REMARK  194  A    between atoms: _472  and  _473
REMARK  195  A    between atoms: _472  and  _475
REMARK  196  A    between atoms: _475  and  _476
REMARK  197  A    between atoms: _482  and  _484
REMARK  198  A    between atoms: _484  and  _485
REMARK  199  A    between atoms: _487  and  _489
REMARK  200  A    between atoms: _489  and  _490
REMARK  201  A    between atoms: _489  and  _492
REMARK  202  A    between atoms: _492  and  _493
REMARK  203  A    between atoms: _493  and  _494
REMARK  204  A    between atoms: _494  and  _495
REMARK  205  A    between atoms: _495  and  _496
REMARK  206  A    between atoms: _500  and  _502
REMARK  207  A    between atoms: _502  and  _503
REMARK  208  A    between atoms: _505  and  _507
REMARK  209  A    between atoms: _507  and  _508
REMARK  210  A    between atoms: _507  and  _510
REMARK  211  A    between atoms: _513  and  _515
REMARK  212  A    between atoms: _515  and  _516
REMARK  213  A    between atoms: _518  and  _520
REMARK  214  A    between atoms: _520  and  _521
REMARK  215  A    between atoms: _520  and  _523
REMARK  216  A    between atoms: _523  and  _524
REMARK                            x       y       z     vdW  Elec       q    Type
REMARK                         _______ _______ _______ _____ _____    ______ ____
ROOT
ATOM      1  O   HOH     1       9.964  -3.164  -8.063  0.00  0.00    +0.000 OA
ENDROOT
TORSDOF 0
REMARK  Name = ../refined-set-2016/4pp0/4pp0_pocket.pdb
REMARK  216 active torsions:
REMARK  status: ('A' for Active; 'I' for Inactive)
REMARK    1  A    between atoms: _1  and  _3
REMARK    2  A    between atoms: _3  and  _4
REMARK    3  A    between atoms: _3  and  _6
REMARK    4  A    between atoms: _6  and  _7
REMARK    5  A    between atoms: _10  and  _12
REMARK    6  A    between atoms: _12  and  _13
REMARK    7  A    between atoms: _12  and  _15
REMARK    8  A    between atoms: _15  and  _16
REMARK    9  A    between atoms: _16  and  _17
REMARK   10  A    between atoms: _20  and  _22
REMARK   11  A    between atoms: _22  and  _23
REMARK   12  A    between atoms: _25  and  _27
REMARK   13  A    between atoms: _27  and  _28
REMARK   14  A    between atoms: _27  and  _30
REMARK   15  A    between atoms: _30  and  _31
REMARK   16  A    between atoms: _33  and  _35
REMARK   17  A    between atoms: _35  and  _36
REMARK   18  A    between atoms: _35  and  _38
REMARK   19  A    between atoms: _38  and  _39
REMARK   20  A    between atoms: _44  and  _45
REMARK   21  A    between atoms: _47  and  _49
REMARK   22  A    between atoms: _49  and  _50
REMARK   23  A    between atoms: _53  and  _55
REMARK   24  A    between atoms: _55  and  _56
REMARK   25  A    between atoms: _55  and  _58
REMARK   26  A    between atoms: _58  and  _59
REMARK   27  A    between atoms: _64  and  _65
REMARK   28  A    between atoms: _67  and  _69
REMARK   29  A    between atoms: _69  and  _70
REMARK   30  A    between atoms: _69  and  _72
REMARK   31  A    between atoms: _72  and  _73
REMARK   32  A    between atoms: _78  and  _80
REMARK   33  A    between atoms: _80  and  _81
REMARK   34  A    between atoms: _80  and  _83
REMARK   35  A    between atoms: _83  and  _84
REMARK   36  A    between atoms: _87  and  _89
REMARK   37  A    between atoms: _89  and  _90
REMARK   38  A    between atoms: _89  and  _92
REMARK   39  A    between atoms: _92  and  _93
REMARK   40  A    between atoms: _93  and  _94
REMARK   41  A    between atoms: _99  and  _101
REMARK   42  A    between atoms: _101  and  _102
REMARK   43  A    between atoms: _101  and  _104
REMARK   44  A    between atoms: _104  and  _105
REMARK   45  A    between atoms: _115  and  _117
REMARK   46  A    between atoms: _117  and  _118
REMARK   47  A    between atoms: _117  and  _120
REMARK   48  A    between atoms: _120  and  _121
REMARK   49  A    between atoms: _124  and  _126
REMARK   50  A    between atoms: _126  and  _127
REMARK   51  A    between atoms: _126  and  _129
REMARK   52  A    between atoms: _129  and  _130
REMARK   53  A    between atoms: _133  and  _135
REMARK   54  A    between atoms: _135  and  _136
REMARK   55  A    between atoms: _135  and  _138
REMARK   56  A    between atoms: _138  and  _139
REMARK   57  A    between atoms: _139  and  _140
REMARK   58  A    between atoms: _142  and  _144
REMARK   59  A    between atoms: _144  and  _145
REMARK   60  A    between atoms: _148  and  _150
REMARK   61  A    between atoms: _150  and  _151
REMARK   62  A    between atoms: _154  and  _156
REMARK   63  A    between atoms: _156  and  _157
REMARK   64  A    between atoms: _156  and  _159
REMARK   65  A    between atoms: _159  and  _160
REMARK   66  A    between atoms: _160  and  _161
REMARK   67  A    between atoms: _163  and  _165
REMARK   68  A    between atoms: _165  and  _166
REMARK   69  A    between atoms: _168  and  _170
REMARK   70  A    between atoms: _170  and  _171
REMARK   71  A    between atoms: _170  and  _173
REMARK   72  A    between atoms: _173  and  _174
REMARK   73  A    between atoms: _177  and  _179
REMARK   74  A    between atoms: _179  and  _180
REMARK   75  A    between atoms: _179  and  _182
REMARK   76  A    between atoms: _182  and  _183
REMARK   77  A    between atoms: _183  and  _184
REMARK   78  A    between atoms: _189  and  _191
REMARK   79  A    between atoms: _191  and  _192
REMARK   80  A    between atoms: _191  and  _194
REMARK   81  A    between atoms: _194  and  _195
REMARK   82  A    between atoms: _195  and  _196
REMARK   83  A    between atoms: _196  and  _197
REMARK   84  A    between atoms: _206  and  _208
REMARK   85  A    between atoms: _208  and  _209
REMARK   86  A    between atoms: _208  and  _211
REMARK   87  A    between atoms: _211  and  _212
REMARK   88  A    between atoms: _218  and  _220
REMARK   89  A    between atoms: _220  and  _221
REMARK   90  A    between atoms: _220  and  _223
REMARK   91  A    between atoms: _223  and  _224
REMARK   92  A    between atoms: _227  and  _229
REMARK   93  A    between atoms: _229  and  _230
REMARK   94  A    between atoms: _229  and  _232
REMARK   95  A    between atoms: _232  and  _233
REMARK   96  A    between atoms: _236  and  _238
REMARK   97  A    between atoms: _238  and  _239
REMARK   98  A    between atoms: _238  and  _241
REMARK   99  A    between atoms: _241  and  _242
REMARK  100  A    between atoms: _246  and  _247
REMARK  101  A    between atoms: _252  and  _254
REMARK  102  A    between atoms: _254  and  _255
REMARK  103  A    between atoms: _254  and  _257
REMARK  104  A    between atoms: _257  and  _258
REMARK  105  A    between atoms: _263  and  _265
REMARK  106  A    between atoms: _265  and  _266
REMARK  107  A    between atoms: _265  and  _268
REMARK  108  A    between atoms: _268  and  _269
REMARK  109  A    between atoms: _272  and  _274
REMARK  110  A    between atoms: _274  and  _275
REMARK  111  A    between atoms: _274  and  _277
REMARK  112  A    between atoms: _277  and  _278
REMARK  113  A    between atoms: _278  and  _279
REMARK  114  A    between atoms: _284  and  _286
REMARK  115  A    between atoms: _286  and  _287
REMARK  116  A    between atoms: _290  and  _292
REMARK  117  A    between atoms: _292  and  _293
REMARK  118  A    between atoms: _295  and  _297
REMARK  119  A    between atoms: _297  and  _298
REMARK  120  A    between atoms: _297  and  _300
REMARK  121  A    between atoms: _300  and  _301
REMARK  122  A    between atoms: _304  and  _306
REMARK  123  A    between atoms: _306  and  _307
REMARK  124  A    between atoms: _306  and  _309
REMARK  125  A    between atoms: _309  and  _310
REMARK  126  A    between atoms: _312  and  _314
REMARK  127  A    between atoms: _314  and  _315
REMARK  128  A    between atoms: _314  and  _317
REMARK  129  A    between atoms: _317  and  _318
REMARK  130  A    between atoms: _323  and  _325
REMARK  131  A    between atoms: _325  and  _326
REMARK  132  A    between atoms: _325  and  _328
REMARK  133  A    between atoms: _328  and  _329
REMARK  134  A    between atoms: _329  and  _330
REMARK  135  A    between atoms: _333  and  _335
REMARK  136  A    between atoms: _335  and  _336
REMARK  137  A    between atoms: _339  and  _341
REMARK  138  A    between atoms: _341  and  _342
REMARK  139  A    between atoms: _341  and  _344
REMARK  140  A    between atoms: _344  and  _345
REMARK  141  A    between atoms: _351  and  _353
REMARK  142  A    between atoms: _353  and  _354
REMARK  143  A    between atoms: _353  and  _356
REMARK  144  A    between atoms: _356  and  _357
REMARK  145  A    between atoms: _360  and  _362
REMARK  146  A    between atoms: _362  and  _363
REMARK  147  A    between atoms: _362  and  _365
REMARK  148  A    between atoms: _365  and  _366
REMARK  149  A    between atoms: _369  and  _371
REMARK  150  A    between atoms: _371  and  _372
REMARK  151  A    between atoms: _371  and  _374
REMARK  152  A    between atoms: _374  and  _375
REMARK  153  A    between atoms: _378  and  _380
REMARK  154  A    between atoms: _380  and  _381
REMARK  155  A    between atoms: _380  and  _383
REMARK  156  A    between atoms: _383  and  _384
REMARK  157  A    between atoms: _387  and  _389
REMARK  158  A    between atoms: _389  and  _390
REMARK  159  A    between atoms: _389  and  _392
REMARK  160  A    between atoms: _392  and  _393
REMARK  161  A    between atoms: _396  and  _398
REMARK  162  A    between atoms: _398  and  _399
REMARK  163  A    between atoms: _402  and  _404
REMARK  164  A    between atoms: _404  and  _405
REMARK  165  A    between atoms: _404  and  _407
REMARK  166  A    between atoms: _407  and  _408
REMARK  167  A    between atoms: _410  and  _412
REMARK  168  A    between atoms: _412  and  _413
REMARK  169  A    between atoms: _412  and  _415
REMARK  170  A    between atoms: _418  and  _420
REMARK  171  A    between atoms: _420  and  _421
REMARK  172  A    between atoms: _420  and  _423
REMARK  173  A    between atoms: _423  and  _424
REMARK  174  A    between atoms: _426  and  _428
REMARK  175  A    between atoms: _428  and  _429
REMARK  176  A    between atoms: _428  and  _431
REMARK  177  A    between atoms: _431  and  _432
REMARK  178  A    between atoms: _438  and  _440
REMARK  179  A    between atoms: _440  and  _441
REMARK  180  A    between atoms: _440  and  _443
REMARK  181  A    between atoms: _443  and  _444
REMARK  182  A    between atoms: _447  and  _449
REMARK  183  A    between atoms: _449  and  _450
REMARK  184  A    between atoms: _449  and  _452
REMARK  185  A    between atoms: _452  and  _453
REMARK  186  A    between atoms: _453  and  _454
REMARK  187  A    between atoms: _456  and  _458
REMARK  188  A    between atoms: _458  and  _459
REMARK  189  A    between atoms: _461  and  _463
REMARK  190  A    between atoms: _463  and  _464
REMARK  191  A    between atoms: _463  and  _466
REMARK  192  A    between atoms: _466  and  _467
REMARK  193  A    between atoms: _470  and  _472
REMARK  194  A    between atoms: _472  and  _473
REMARK  195  A    between atoms: _472  and  _475
REMARK  196  A    between atoms: _475  and  _476
REMARK  197  A    between atoms: _482  and  _484
REMARK  198  A    between atoms: _484  and  _485
REMARK  199  A    between atoms: _487  and  _489
REMARK  200  A    between atoms: _489  and  _490
REMARK  201  A    between atoms: _489  and  _492
REMARK  202  A    between atoms: _492  and  _493
REMARK  203  A    between atoms: _493  and  _494
REMARK  204  A    between atoms: _494  and  _495
REMARK  205  A    between atoms: _495  and  _496
REMARK  206  A    between atoms: _500  and  _502
REMARK  207  A    between atoms: _502  and  _503
REMARK  208  A    between atoms: _505  and  _507
REMARK  209  A    between atoms: _507  and  _508
REMARK  210  A    between atoms: _507  and  _510
REMARK  211  A    between atoms: _513  and  _515
REMARK  212  A    between atoms: _515  and  _516
REMARK  213  A    between atoms: _518  and  _520
REMARK  214  A    between atoms: _520  and  _521
REMARK  215  A    between atoms: _520  and  _523
REMARK  216  A    between atoms: _523  and  _524
REMARK                            x       y       z     vdW  Elec       q    Type
REMARK                         _______ _______ _______ _____ _____    ______ ____
ROOT
ATOM      1  O   HOH     1      12.102  -8.949  -9.133  0.00  0.00    +0.000 OA
ENDROOT
TORSDOF 0
REMARK  Name = ../refined-set-2016/4pp0/4pp0_pocket.pdb
REMARK  216 active torsions:
REMARK  status: ('A' for Active; 'I' for Inactive)
REMARK    1  A    between atoms: _1  and  _3
REMARK    2  A    between atoms: _3  and  _4
REMARK    3  A    between atoms: _3  and  _6
REMARK    4  A    between atoms: _6  and  _7
REMARK    5  A    between atoms: _10  and  _12
REMARK    6  A    between atoms: _12  and  _13
REMARK    7  A    between atoms: _12  and  _15
REMARK    8  A    between atoms: _15  and  _16
REMARK    9  A    between atoms: _16  and  _17
REMARK   10  A    between atoms: _20  and  _22
REMARK   11  A    between atoms: _22  and  _23
REMARK   12  A    between atoms: _25  and  _27
REMARK   13  A    between atoms: _27  and  _28
REMARK   14  A    between atoms: _27  and  _30
REMARK   15  A    between atoms: _30  and  _31
REMARK   16  A    between atoms: _33  and  _35
REMARK   17  A    between atoms: _35  and  _36
REMARK   18  A    between atoms: _35  and  _38
REMARK   19  A    between atoms: _38  and  _39
REMARK   20  A    between atoms: _44  and  _45
REMARK   21  A    between atoms: _47  and  _49
REMARK   22  A    between atoms: _49  and  _50
REMARK   23  A    between atoms: _53  and  _55
REMARK   24  A    between atoms: _55  and  _56
REMARK   25  A    between atoms: _55  and  _58
REMARK   26  A    between atoms: _58  and  _59
REMARK   27  A    between atoms: _64  and  _65
REMARK   28  A    between atoms: _67  and  _69
REMARK   29  A    between atoms: _69  and  _70
REMARK   30  A    between atoms: _69  and  _72
REMARK   31  A    between atoms: _72  and  _73
REMARK   32  A    between atoms: _78  and  _80
REMARK   33  A    between atoms: _80  and  _81
REMARK   34  A    between atoms: _80  and  _83
REMARK   35  A    between atoms: _83  and  _84
REMARK   36  A    between atoms: _87  and  _89
REMARK   37  A    between atoms: _89  and  _90
REMARK   38  A    between atoms: _89  and  _92
REMARK   39  A    between atoms: _92  and  _93
REMARK   40  A    between atoms: _93  and  _94
REMARK   41  A    between atoms: _99  and  _101
REMARK   42  A    between atoms: _101  and  _102
REMARK   43  A    between atoms: _101  and  _104
REMARK   44  A    between atoms: _104  and  _105
REMARK   45  A    between atoms: _115  and  _117
REMARK   46  A    between atoms: _117  and  _118
REMARK   47  A    between atoms: _117  and  _120
REMARK   48  A    between atoms: _120  and  _121
REMARK   49  A    between atoms: _124  and  _126
REMARK   50  A    between atoms: _126  and  _127
REMARK   51  A    between atoms: _126  and  _129
REMARK   52  A    between atoms: _129  and  _130
REMARK   53  A    between atoms: _133  and  _135
REMARK   54  A    between atoms: _135  and  _136
REMARK   55  A    between atoms: _135  and  _138
REMARK   56  A    between atoms: _138  and  _139
REMARK   57  A    between atoms: _139  and  _140
REMARK   58  A    between atoms: _142  and  _144
REMARK   59  A    between atoms: _144  and  _145
REMARK   60  A    between atoms: _148  and  _150
REMARK   61  A    between atoms: _150  and  _151
REMARK   62  A    between atoms: _154  and  _156
REMARK   63  A    between atoms: _156  and  _157
REMARK   64  A    between atoms: _156  and  _159
REMARK   65  A    between atoms: _159  and  _160
REMARK   66  A    between atoms: _160  and  _161
REMARK   67  A    between atoms: _163  and  _165
REMARK   68  A    between atoms: _165  and  _166
REMARK   69  A    between atoms: _168  and  _170
REMARK   70  A    between atoms: _170  and  _171
REMARK   71  A    between atoms: _170  and  _173
REMARK   72  A    between atoms: _173  and  _174
REMARK   73  A    between atoms: _177  and  _179
REMARK   74  A    between atoms: _179  and  _180
REMARK   75  A    between atoms: _179  and  _182
REMARK   76  A    between atoms: _182  and  _183
REMARK   77  A    between atoms: _183  and  _184
REMARK   78  A    between atoms: _189  and  _191
REMARK   79  A    between atoms: _191  and  _192
REMARK   80  A    between atoms: _191  and  _194
REMARK   81  A    between atoms: _194  and  _195
REMARK   82  A    between atoms: _195  and  _196
REMARK   83  A    between atoms: _196  and  _197
REMARK   84  A    between atoms: _206  and  _208
REMARK   85  A    between atoms: _208  and  _209
REMARK   86  A    between atoms: _208  and  _211
REMARK   87  A    between atoms: _211  and  _212
REMARK   88  A    between atoms: _218  and  _220
REMARK   89  A    between atoms: _220  and  _221
REMARK   90  A    between atoms: _220  and  _223
REMARK   91  A    between atoms: _223  and  _224
REMARK   92  A    between atoms: _227  and  _229
REMARK   93  A    between atoms: _229  and  _230
REMARK   94  A    between atoms: _229  and  _232
REMARK   95  A    between atoms: _232  and  _233
REMARK   96  A    between atoms: _236  and  _238
REMARK   97  A    between atoms: _238  and  _239
REMARK   98  A    between atoms: _238  and  _241
REMARK   99  A    between atoms: _241  and  _242
REMARK  100  A    between atoms: _246  and  _247
REMARK  101  A    between atoms: _252  and  _254
REMARK  102  A    between atoms: _254  and  _255
REMARK  103  A    between atoms: _254  and  _257
REMARK  104  A    between atoms: _257  and  _258
REMARK  105  A    between atoms: _263  and  _265
REMARK  106  A    between atoms: _265  and  _266
REMARK  107  A    between atoms: _265  and  _268
REMARK  108  A    between atoms: _268  and  _269
REMARK  109  A    between atoms: _272  and  _274
REMARK  110  A    between atoms: _274  and  _275
REMARK  111  A    between atoms: _274  and  _277
REMARK  112  A    between atoms: _277  and  _278
REMARK  113  A    between atoms: _278  and  _279
REMARK  114  A    between atoms: _284  and  _286
REMARK  115  A    between atoms: _286  and  _287
REMARK  116  A    between atoms: _290  and  _292
REMARK  117  A    between atoms: _292  and  _293
REMARK  118  A    between atoms: _295  and  _297
REMARK  119  A    between atoms: _297  and  _298
REMARK  120  A    between atoms: _297  and  _300
REMARK  121  A    between atoms: _300  and  _301
REMARK  122  A    between atoms: _304  and  _306
REMARK  123  A    between atoms: _306  and  _307
REMARK  124  A    between atoms: _306  and  _309
REMARK  125  A    between atoms: _309  and  _310
REMARK  126  A    between atoms: _312  and  _314
REMARK  127  A    between atoms: _314  and  _315
REMARK  128  A    between atoms: _314  and  _317
REMARK  129  A    between atoms: _317  and  _318
REMARK  130  A    between atoms: _323  and  _325
REMARK  131  A    between atoms: _325  and  _326
REMARK  132  A    between atoms: _325  and  _328
REMARK  133  A    between atoms: _328  and  _329
REMARK  134  A    between atoms: _329  and  _330
REMARK  135  A    between atoms: _333  and  _335
REMARK  136  A    between atoms: _335  and  _336
REMARK  137  A    between atoms: _339  and  _341
REMARK  138  A    between atoms: _341  and  _342
REMARK  139  A    between atoms: _341  and  _344
REMARK  140  A    between atoms: _344  and  _345
REMARK  141  A    between atoms: _351  and  _353
REMARK  142  A    between atoms: _353  and  _354
REMARK  143  A    between atoms: _353  and  _356
REMARK  144  A    between atoms: _356  and  _357
REMARK  145  A    between atoms: _360  and  _362
REMARK  146  A    between atoms: _362  and  _363
REMARK  147  A    between atoms: _362  and  _365
REMARK  148  A    between atoms: _365  and  _366
REMARK  149  A    between atoms: _369  and  _371
REMARK  150  A    between atoms: _371  and  _372
REMARK  151  A    between atoms: _371  and  _374
REMARK  152  A    between atoms: _374  and  _375
REMARK  153  A    between atoms: _378  and  _380
REMARK  154  A    between atoms: _380  and  _381
REMARK  155  A    between atoms: _380  and  _383
REMARK  156  A    between atoms: _383  and  _384
REMARK  157  A    between atoms: _387  and  _389
REMARK  158  A    between atoms: _389  and  _390
REMARK  159  A    between atoms: _389  and  _392
REMARK  160  A    between atoms: _392  and  _393
REMARK  161  A    between atoms: _396  and  _398
REMARK  162  A    between atoms: _398  and  _399
REMARK  163  A    between atoms: _402  and  _404
REMARK  164  A    between atoms: _404  and  _405
REMARK  165  A    between atoms: _404  and  _407
REMARK  166  A    between atoms: _407  and  _408
REMARK  167  A    between atoms: _410  and  _412
REMARK  168  A    between atoms: _412  and  _413
REMARK  169  A    between atoms: _412  and  _415
REMARK  170  A    between atoms: _418  and  _420
REMARK  171  A    between atoms: _420  and  _421
REMARK  172  A    between atoms: _420  and  _423
REMARK  173  A    between atoms: _423  and  _424
REMARK  174  A    between atoms: _426  and  _428
REMARK  175  A    between atoms: _428  and  _429
REMARK  176  A    between atoms: _428  and  _431
REMARK  177  A    between atoms: _431  and  _432
REMARK  178  A    between atoms: _438  and  _440
REMARK  179  A    between atoms: _440  and  _441
REMARK  180  A    between atoms: _440  and  _443
REMARK  181  A    between atoms: _443  and  _444
REMARK  182  A    between atoms: _447  and  _449
REMARK  183  A    between atoms: _449  and  _450
REMARK  184  A    between atoms: _449  and  _452
REMARK  185  A    between atoms: _452  and  _453
REMARK  186  A    between atoms: _453  and  _454
REMARK  187  A    between atoms: _456  and  _458
REMARK  188  A    between atoms: _458  and  _459
REMARK  189  A    between atoms: _461  and  _463
REMARK  190  A    between atoms: _463  and  _464
REMARK  191  A    between atoms: _463  and  _466
REMARK  192  A    between atoms: _466  and  _467
REMARK  193  A    between atoms: _470  and  _472
REMARK  194  A    between atoms: _472  and  _473
REMARK  195  A    between atoms: _472  and  _475
REMARK  196  A    between atoms: _475  and  _476
REMARK  197  A    between atoms: _482  and  _484
REMARK  198  A    between atoms: _484  and  _485
REMARK  199  A    between atoms: _487  and  _489
REMARK  200  A    between atoms: _489  and  _490
REMARK  201  A    between atoms: _489  and  _492
REMARK  202  A    between atoms: _492  and  _493
REMARK  203  A    between atoms: _493  and  _494
REMARK  204  A    between atoms: _494  and  _495
REMARK  205  A    between atoms: _495  and  _496
REMARK  206  A    between atoms: _500  and  _502
REMARK  207  A    between atoms: _502  and  _503
REMARK  208  A    between atoms: _505  and  _507
REMARK  209  A    between atoms: _507  and  _508
REMARK  210  A    between atoms: _507  and  _510
REMARK  211  A    between atoms: _513  and  _515
REMARK  212  A    between atoms: _515  and  _516
REMARK  213  A    between atoms: _518  and  _520
REMARK  214  A    between atoms: _520  and  _521
REMARK  215  A    between atoms: _520  and  _523
REMARK  216  A    between atoms: _523  and  _524
REMARK                            x       y       z     vdW  Elec       q    Type
REMARK                         _______ _______ _______ _____ _____    ______ ____
ROOT
ATOM      1  O   HOH     1      16.821  -4.132 -13.734  0.00  0.00    +0.000 OA
ENDROOT
TORSDOF 0
REMARK  Name = ../refined-set-2016/4pp0/4pp0_pocket.pdb
REMARK  216 active torsions:
REMARK  status: ('A' for Active; 'I' for Inactive)
REMARK    1  A    between atoms: _1  and  _3
REMARK    2  A    between atoms: _3  and  _4
REMARK    3  A    between atoms: _3  and  _6
REMARK    4  A    between atoms: _6  and  _7
REMARK    5  A    between atoms: _10  and  _12
REMARK    6  A    between atoms: _12  and  _13
REMARK    7  A    between atoms: _12  and  _15
REMARK    8  A    between atoms: _15  and  _16
REMARK    9  A    between atoms: _16  and  _17
REMARK   10  A    between atoms: _20  and  _22
REMARK   11  A    between atoms: _22  and  _23
REMARK   12  A    between atoms: _25  and  _27
REMARK   13  A    between atoms: _27  and  _28
REMARK   14  A    between atoms: _27  and  _30
REMARK   15  A    between atoms: _30  and  _31
REMARK   16  A    between atoms: _33  and  _35
REMARK   17  A    between atoms: _35  and  _36
REMARK   18  A    between atoms: _35  and  _38
REMARK   19  A    between atoms: _38  and  _39
REMARK   20  A    between atoms: _44  and  _45
REMARK   21  A    between atoms: _47  and  _49
REMARK   22  A    between atoms: _49  and  _50
REMARK   23  A    between atoms: _53  and  _55
REMARK   24  A    between atoms: _55  and  _56
REMARK   25  A    between atoms: _55  and  _58
REMARK   26  A    between atoms: _58  and  _59
REMARK   27  A    between atoms: _64  and  _65
REMARK   28  A    between atoms: _67  and  _69
REMARK   29  A    between atoms: _69  and  _70
REMARK   30  A    between atoms: _69  and  _72
REMARK   31  A    between atoms: _72  and  _73
REMARK   32  A    between atoms: _78  and  _80
REMARK   33  A    between atoms: _80  and  _81
REMARK   34  A    between atoms: _80  and  _83
REMARK   35  A    between atoms: _83  and  _84
REMARK   36  A    between atoms: _87  and  _89
REMARK   37  A    between atoms: _89  and  _90
REMARK   38  A    between atoms: _89  and  _92
REMARK   39  A    between atoms: _92  and  _93
REMARK   40  A    between atoms: _93  and  _94
REMARK   41  A    between atoms: _99  and  _101
REMARK   42  A    between atoms: _101  and  _102
REMARK   43  A    between atoms: _101  and  _104
REMARK   44  A    between atoms: _104  and  _105
REMARK   45  A    between atoms: _115  and  _117
REMARK   46  A    between atoms: _117  and  _118
REMARK   47  A    between atoms: _117  and  _120
REMARK   48  A    between atoms: _120  and  _121
REMARK   49  A    between atoms: _124  and  _126
REMARK   50  A    between atoms: _126  and  _127
REMARK   51  A    between atoms: _126  and  _129
REMARK   52  A    between atoms: _129  and  _130
REMARK   53  A    between atoms: _133  and  _135
REMARK   54  A    between atoms: _135  and  _136
REMARK   55  A    between atoms: _135  and  _138
REMARK   56  A    between atoms: _138  and  _139
REMARK   57  A    between atoms: _139  and  _140
REMARK   58  A    between atoms: _142  and  _144
REMARK   59  A    between atoms: _144  and  _145
REMARK   60  A    between atoms: _148  and  _150
REMARK   61  A    between atoms: _150  and  _151
REMARK   62  A    between atoms: _154  and  _156
REMARK   63  A    between atoms: _156  and  _157
REMARK   64  A    between atoms: _156  and  _159
REMARK   65  A    between atoms: _159  and  _160
REMARK   66  A    between atoms: _160  and  _161
REMARK   67  A    between atoms: _163  and  _165
REMARK   68  A    between atoms: _165  and  _166
REMARK   69  A    between atoms: _168  and  _170
REMARK   70  A    between atoms: _170  and  _171
REMARK   71  A    between atoms: _170  and  _173
REMARK   72  A    between atoms: _173  and  _174
REMARK   73  A    between atoms: _177  and  _179
REMARK   74  A    between atoms: _179  and  _180
REMARK   75  A    between atoms: _179  and  _182
REMARK   76  A    between atoms: _182  and  _183
REMARK   77  A    between atoms: _183  and  _184
REMARK   78  A    between atoms: _189  and  _191
REMARK   79  A    between atoms: _191  and  _192
REMARK   80  A    between atoms: _191  and  _194
REMARK   81  A    between atoms: _194  and  _195
REMARK   82  A    between atoms: _195  and  _196
REMARK   83  A    between atoms: _196  and  _197
REMARK   84  A    between atoms: _206  and  _208
REMARK   85  A    between atoms: _208  and  _209
REMARK   86  A    between atoms: _208  and  _211
REMARK   87  A    between atoms: _211  and  _212
REMARK   88  A    between atoms: _218  and  _220
REMARK   89  A    between atoms: _220  and  _221
REMARK   90  A    between atoms: _220  and  _223
REMARK   91  A    between atoms: _223  and  _224
REMARK   92  A    between atoms: _227  and  _229
REMARK   93  A    between atoms: _229  and  _230
REMARK   94  A    between atoms: _229  and  _232
REMARK   95  A    between atoms: _232  and  _233
REMARK   96  A    between atoms: _236  and  _238
REMARK   97  A    between atoms: _238  and  _239
REMARK   98  A    between atoms: _238  and  _241
REMARK   99  A    between atoms: _241  and  _242
REMARK  100  A    between atoms: _246  and  _247
REMARK  101  A    between atoms: _252  and  _254
REMARK  102  A    between atoms: _254  and  _255
REMARK  103  A    between atoms: _254  and  _257
REMARK  104  A    between atoms: _257  and  _258
REMARK  105  A    between atoms: _263  and  _265
REMARK  106  A    between atoms: _265  and  _266
REMARK  107  A    between atoms: _265  and  _268
REMARK  108  A    between atoms: _268  and  _269
REMARK  109  A    between atoms: _272  and  _274
REMARK  110  A    between atoms: _274  and  _275
REMARK  111  A    between atoms: _274  and  _277
REMARK  112  A    between atoms: _277  and  _278
REMARK  113  A    between atoms: _278  and  _279
REMARK  114  A    between atoms: _284  and  _286
REMARK  115  A    between atoms: _286  and  _287
REMARK  116  A    between atoms: _290  and  _292
REMARK  117  A    between atoms: _292  and  _293
REMARK  118  A    between atoms: _295  and  _297
REMARK  119  A    between atoms: _297  and  _298
REMARK  120  A    between atoms: _297  and  _300
REMARK  121  A    between atoms: _300  and  _301
REMARK  122  A    between atoms: _304  and  _306
REMARK  123  A    between atoms: _306  and  _307
REMARK  124  A    between atoms: _306  and  _309
REMARK  125  A    between atoms: _309  and  _310
REMARK  126  A    between atoms: _312  and  _314
REMARK  127  A    between atoms: _314  and  _315
REMARK  128  A    between atoms: _314  and  _317
REMARK  129  A    between atoms: _317  and  _318
REMARK  130  A    between atoms: _323  and  _325
REMARK  131  A    between atoms: _325  and  _326
REMARK  132  A    between atoms: _325  and  _328
REMARK  133  A    between atoms: _328  and  _329
REMARK  134  A    between atoms: _329  and  _330
REMARK  135  A    between atoms: _333  and  _335
REMARK  136  A    between atoms: _335  and  _336
REMARK  137  A    between atoms: _339  and  _341
REMARK  138  A    between atoms: _341  and  _342
REMARK  139  A    between atoms: _341  and  _344
REMARK  140  A    between atoms: _344  and  _345
REMARK  141  A    between atoms: _351  and  _353
REMARK  142  A    between atoms: _353  and  _354
REMARK  143  A    between atoms: _353  and  _356
REMARK  144  A    between atoms: _356  and  _357
REMARK  145  A    between atoms: _360  and  _362
REMARK  146  A    between atoms: _362  and  _363
REMARK  147  A    between atoms: _362  and  _365
REMARK  148  A    between atoms: _365  and  _366
REMARK  149  A    between atoms: _369  and  _371
REMARK  150  A    between atoms: _371  and  _372
REMARK  151  A    between atoms: _371  and  _374
REMARK  152  A    between atoms: _374  and  _375
REMARK  153  A    between atoms: _378  and  _380
REMARK  154  A    between atoms: _380  and  _381
REMARK  155  A    between atoms: _380  and  _383
REMARK  156  A    between atoms: _383  and  _384
REMARK  157  A    between atoms: _387  and  _389
REMARK  158  A    between atoms: _389  and  _390
REMARK  159  A    between atoms: _389  and  _392
REMARK  160  A    between atoms: _392  and  _393
REMARK  161  A    between atoms: _396  and  _398
REMARK  162  A    between atoms: _398  and  _399
REMARK  163  A    between atoms: _402  and  _404
REMARK  164  A    between atoms: _404  and  _405
REMARK  165  A    between atoms: _404  and  _407
REMARK  166  A    between atoms: _407  and  _408
REMARK  167  A    between atoms: _410  and  _412
REMARK  168  A    between atoms: _412  and  _413
REMARK  169  A    between atoms: _412  and  _415
REMARK  170  A    between atoms: _418  and  _420
REMARK  171  A    between atoms: _420  and  _421
REMARK  172  A    between atoms: _420  and  _423
REMARK  173  A    between atoms: _423  and  _424
REMARK  174  A    between atoms: _426  and  _428
REMARK  175  A    between atoms: _428  and  _429
REMARK  176  A    between atoms: _428  and  _431
REMARK  177  A    between atoms: _431  and  _432
REMARK  178  A    between atoms: _438  and  _440
REMARK  179  A    between atoms: _440  and  _441
REMARK  180  A    between atoms: _440  and  _443
REMARK  181  A    between atoms: _443  and  _444
REMARK  182  A    between atoms: _447  and  _449
REMARK  183  A    between atoms: _449  and  _450
REMARK  184  A    between atoms: _449  and  _452
REMARK  185  A    between atoms: _452  and  _453
REMARK  186  A    between atoms: _453  and  _454
REMARK  187  A    between atoms: _456  and  _458
REMARK  188  A    between atoms: _458  and  _459
REMARK  189  A    between atoms: _461  and  _463
REMARK  190  A    between atoms: _463  and  _464
REMARK  191  A    between atoms: _463  and  _466
REMARK  192  A    between atoms: _466  and  _467
REMARK  193  A    between atoms: _470  and  _472
REMARK  194  A    between atoms: _472  and  _473
REMARK  195  A    between atoms: _472  and  _475
REMARK  196  A    between atoms: _475  and  _476
REMARK  197  A    between atoms: _482  and  _484
REMARK  198  A    between atoms: _484  and  _485
REMARK  199  A    between atoms: _487  and  _489
REMARK  200  A    between atoms: _489  and  _490
REMARK  201  A    between atoms: _489  and  _492
REMARK  202  A    between atoms: _492  and  _493
REMARK  203  A    between atoms: _493  and  _494
REMARK  204  A    between atoms: _494  and  _495
REMARK  205  A    between atoms: _495  and  _496
REMARK  206  A    between atoms: _500  and  _502
REMARK  207  A    between atoms: _502  and  _503
REMARK  208  A    between atoms: _505  and  _507
REMARK  209  A    between atoms: _507  and  _508
REMARK  210  A    between atoms: _507  and  _510
REMARK  211  A    between atoms: _513  and  _515
REMARK  212  A    between atoms: _515  and  _516
REMARK  213  A    between atoms: _518  and  _520
REMARK  214  A    between atoms: _520  and  _521
REMARK  215  A    between atoms: _520  and  _523
REMARK  216  A    between atoms: _523  and  _524
REMARK                            x       y       z     vdW  Elec       q    Type
REMARK                         _______ _______ _______ _____ _____    ______ ____
ROOT
ATOM      1  O   HOH     1      18.866  -5.209 -17.001  0.00  0.00    +0.000 OA
ENDROOT
TORSDOF 0
REMARK  Name = ../refined-set-2016/4pp0/4pp0_pocket.pdb
REMARK  216 active torsions:
REMARK  status: ('A' for Active; 'I' for Inactive)
REMARK    1  A    between atoms: _1  and  _3
REMARK    2  A    between atoms: _3  and  _4
REMARK    3  A    between atoms: _3  and  _6
REMARK    4  A    between atoms: _6  and  _7
REMARK    5  A    between atoms: _10  and  _12
REMARK    6  A    between atoms: _12  and  _13
REMARK    7  A    between atoms: _12  and  _15
REMARK    8  A    between atoms: _15  and  _16
REMARK    9  A    between atoms: _16  and  _17
REMARK   10  A    between atoms: _20  and  _22
REMARK   11  A    between atoms: _22  and  _23
REMARK   12  A    between atoms: _25  and  _27
REMARK   13  A    between atoms: _27  and  _28
REMARK   14  A    between atoms: _27  and  _30
REMARK   15  A    between atoms: _30  and  _31
REMARK   16  A    between atoms: _33  and  _35
REMARK   17  A    between atoms: _35  and  _36
REMARK   18  A    between atoms: _35  and  _38
REMARK   19  A    between atoms: _38  and  _39
REMARK   20  A    between atoms: _44  and  _45
REMARK   21  A    between atoms: _47  and  _49
REMARK   22  A    between atoms: _49  and  _50
REMARK   23  A    between atoms: _53  and  _55
REMARK   24  A    between atoms: _55  and  _56
REMARK   25  A    between atoms: _55  and  _58
REMARK   26  A    between atoms: _58  and  _59
REMARK   27  A    between atoms: _64  and  _65
REMARK   28  A    between atoms: _67  and  _69
REMARK   29  A    between atoms: _69  and  _70
REMARK   30  A    between atoms: _69  and  _72
REMARK   31  A    between atoms: _72  and  _73
REMARK   32  A    between atoms: _78  and  _80
REMARK   33  A    between atoms: _80  and  _81
REMARK   34  A    between atoms: _80  and  _83
REMARK   35  A    between atoms: _83  and  _84
REMARK   36  A    between atoms: _87  and  _89
REMARK   37  A    between atoms: _89  and  _90
REMARK   38  A    between atoms: _89  and  _92
REMARK   39  A    between atoms: _92  and  _93
REMARK   40  A    between atoms: _93  and  _94
REMARK   41  A    between atoms: _99  and  _101
REMARK   42  A    between atoms: _101  and  _102
REMARK   43  A    between atoms: _101  and  _104
REMARK   44  A    between atoms: _104  and  _105
REMARK   45  A    between atoms: _115  and  _117
REMARK   46  A    between atoms: _117  and  _118
REMARK   47  A    between atoms: _117  and  _120
REMARK   48  A    between atoms: _120  and  _121
REMARK   49  A    between atoms: _124  and  _126
REMARK   50  A    between atoms: _126  and  _127
REMARK   51  A    between atoms: _126  and  _129
REMARK   52  A    between atoms: _129  and  _130
REMARK   53  A    between atoms: _133  and  _135
REMARK   54  A    between atoms: _135  and  _136
REMARK   55  A    between atoms: _135  and  _138
REMARK   56  A    between atoms: _138  and  _139
REMARK   57  A    between atoms: _139  and  _140
REMARK   58  A    between atoms: _142  and  _144
REMARK   59  A    between atoms: _144  and  _145
REMARK   60  A    between atoms: _148  and  _150
REMARK   61  A    between atoms: _150  and  _151
REMARK   62  A    between atoms: _154  and  _156
REMARK   63  A    between atoms: _156  and  _157
REMARK   64  A    between atoms: _156  and  _159
REMARK   65  A    between atoms: _159  and  _160
REMARK   66  A    between atoms: _160  and  _161
REMARK   67  A    between atoms: _163  and  _165
REMARK   68  A    between atoms: _165  and  _166
REMARK   69  A    between atoms: _168  and  _170
REMARK   70  A    between atoms: _170  and  _171
REMARK   71  A    between atoms: _170  and  _173
REMARK   72  A    between atoms: _173  and  _174
REMARK   73  A    between atoms: _177  and  _179
REMARK   74  A    between atoms: _179  and  _180
REMARK   75  A    between atoms: _179  and  _182
REMARK   76  A    between atoms: _182  and  _183
REMARK   77  A    between atoms: _183  and  _184
REMARK   78  A    between atoms: _189  and  _191
REMARK   79  A    between atoms: _191  and  _192
REMARK   80  A    between atoms: _191  and  _194
REMARK   81  A    between atoms: _194  and  _195
REMARK   82  A    between atoms: _195  and  _196
REMARK   83  A    between atoms: _196  and  _197
REMARK   84  A    between atoms: _206  and  _208
REMARK   85  A    between atoms: _208  and  _209
REMARK   86  A    between atoms: _208  and  _211
REMARK   87  A    between atoms: _211  and  _212
REMARK   88  A    between atoms: _218  and  _220
REMARK   89  A    between atoms: _220  and  _221
REMARK   90  A    between atoms: _220  and  _223
REMARK   91  A    between atoms: _223  and  _224
REMARK   92  A    between atoms: _227  and  _229
REMARK   93  A    between atoms: _229  and  _230
REMARK   94  A    between atoms: _229  and  _232
REMARK   95  A    between atoms: _232  and  _233
REMARK   96  A    between atoms: _236  and  _238
REMARK   97  A    between atoms: _238  and  _239
REMARK   98  A    between atoms: _238  and  _241
REMARK   99  A    between atoms: _241  and  _242
REMARK  100  A    between atoms: _246  and  _247
REMARK  101  A    between atoms: _252  and  _254
REMARK  102  A    between atoms: _254  and  _255
REMARK  103  A    between atoms: _254  and  _257
REMARK  104  A    between atoms: _257  and  _258
REMARK  105  A    between atoms: _263  and  _265
REMARK  106  A    between atoms: _265  and  _266
REMARK  107  A    between atoms: _265  and  _268
REMARK  108  A    between atoms: _268  and  _269
REMARK  109  A    between atoms: _272  and  _274
REMARK  110  A    between atoms: _274  and  _275
REMARK  111  A    between atoms: _274  and  _277
REMARK  112  A    between atoms: _277  and  _278
REMARK  113  A    between atoms: _278  and  _279
REMARK  114  A    between atoms: _284  and  _286
REMARK  115  A    between atoms: _286  and  _287
REMARK  116  A    between atoms: _290  and  _292
REMARK  117  A    between atoms: _292  and  _293
REMARK  118  A    between atoms: _295  and  _297
REMARK  119  A    between atoms: _297  and  _298
REMARK  120  A    between atoms: _297  and  _300
REMARK  121  A    between atoms: _300  and  _301
REMARK  122  A    between atoms: _304  and  _306
REMARK  123  A    between atoms: _306  and  _307
REMARK  124  A    between atoms: _306  and  _309
REMARK  125  A    between atoms: _309  and  _310
REMARK  126  A    between atoms: _312  and  _314
REMARK  127  A    between atoms: _314  and  _315
REMARK  128  A    between atoms: _314  and  _317
REMARK  129  A    between atoms: _317  and  _318
REMARK  130  A    between atoms: _323  and  _325
REMARK  131  A    between atoms: _325  and  _326
REMARK  132  A    between atoms: _325  and  _328
REMARK  133  A    between atoms: _328  and  _329
REMARK  134  A    between atoms: _329  and  _330
REMARK  135  A    between atoms: _333  and  _335
REMARK  136  A    between atoms: _335  and  _336
REMARK  137  A    between atoms: _339  and  _341
REMARK  138  A    between atoms: _341  and  _342
REMARK  139  A    between atoms: _341  and  _344
REMARK  140  A    between atoms: _344  and  _345
REMARK  141  A    between atoms: _351  and  _353
REMARK  142  A    between atoms: _353  and  _354
REMARK  143  A    between atoms: _353  and  _356
REMARK  144  A    between atoms: _356  and  _357
REMARK  145  A    between atoms: _360  and  _362
REMARK  146  A    between atoms: _362  and  _363
REMARK  147  A    between atoms: _362  and  _365
REMARK  148  A    between atoms: _365  and  _366
REMARK  149  A    between atoms: _369  and  _371
REMARK  150  A    between atoms: _371  and  _372
REMARK  151  A    between atoms: _371  and  _374
REMARK  152  A    between atoms: _374  and  _375
REMARK  153  A    between atoms: _378  and  _380
REMARK  154  A    between atoms: _380  and  _381
REMARK  155  A    between atoms: _380  and  _383
REMARK  156  A    between atoms: _383  and  _384
REMARK  157  A    between atoms: _387  and  _389
REMARK  158  A    between atoms: _389  and  _390
REMARK  159  A    between atoms: _389  and  _392
REMARK  160  A    between atoms: _392  and  _393
REMARK  161  A    between atoms: _396  and  _398
REMARK  162  A    between atoms: _398  and  _399
REMARK  163  A    between atoms: _402  and  _404
REMARK  164  A    between atoms: _404  and  _405
REMARK  165  A    between atoms: _404  and  _407
REMARK  166  A    between atoms: _407  and  _408
REMARK  167  A    between atoms: _410  and  _412
REMARK  168  A    between atoms: _412  and  _413
REMARK  169  A    between atoms: _412  and  _415
REMARK  170  A    between atoms: _418  and  _420
REMARK  171  A    between atoms: _420  and  _421
REMARK  172  A    between atoms: _420  and  _423
REMARK  173  A    between atoms: _423  and  _424
REMARK  174  A    between atoms: _426  and  _428
REMARK  175  A    between atoms: _428  and  _429
REMARK  176  A    between atoms: _428  and  _431
REMARK  177  A    between atoms: _431  and  _432
REMARK  178  A    between atoms: _438  and  _440
REMARK  179  A    between atoms: _440  and  _441
REMARK  180  A    between atoms: _440  and  _443
REMARK  181  A    between atoms: _443  and  _444
REMARK  182  A    between atoms: _447  and  _449
REMARK  183  A    between atoms: _449  and  _450
REMARK  184  A    between atoms: _449  and  _452
REMARK  185  A    between atoms: _452  and  _453
REMARK  186  A    between atoms: _453  and  _454
REMARK  187  A    between atoms: _456  and  _458
REMARK  188  A    between atoms: _458  and  _459
REMARK  189  A    between atoms: _461  and  _463
REMARK  190  A    between atoms: _463  and  _464
REMARK  191  A    between atoms: _463  and  _466
REMARK  192  A    between atoms: _466  and  _467
REMARK  193  A    between atoms: _470  and  _472
REMARK  194  A    between atoms: _472  and  _473
REMARK  195  A    between atoms: _472  and  _475
REMARK  196  A    between atoms: _475  and  _476
REMARK  197  A    between atoms: _482  and  _484
REMARK  198  A    between atoms: _484  and  _485
REMARK  199  A    between atoms: _487  and  _489
REMARK  200  A    between atoms: _489  and  _490
REMARK  201  A    between atoms: _489  and  _492
REMARK  202  A    between atoms: _492  and  _493
REMARK  203  A    between atoms: _493  and  _494
REMARK  204  A    between atoms: _494  and  _495
REMARK  205  A    between atoms: _495  and  _496
REMARK  206  A    between atoms: _500  and  _502
REMARK  207  A    between atoms: _502  and  _503
REMARK  208  A    between atoms: _505  and  _507
REMARK  209  A    between atoms: _507  and  _508
REMARK  210  A    between atoms: _507  and  _510
REMARK  211  A    between atoms: _513  and  _515
REMARK  212  A    between atoms: _515  and  _516
REMARK  213  A    between atoms: _518  and  _520
REMARK  214  A    between atoms: _520  and  _521
REMARK  215  A    between atoms: _520  and  _523
REMARK  216  A    between atoms: _523  and  _524
REMARK                            x       y       z     vdW  Elec       q    Type
REMARK                         _______ _______ _______ _____ _____    ______ ____
ROOT
ATOM      1  O   HOH     1      10.002  -7.361 -10.528  0.00  0.00    +0.000 OA
ENDROOT
TORSDOF 0
REMARK  Name = ../refined-set-2016/4pp0/4pp0_pocket.pdb
REMARK  216 active torsions:
REMARK  status: ('A' for Active; 'I' for Inactive)
REMARK    1  A    between atoms: _1  and  _3
REMARK    2  A    between atoms: _3  and  _4
REMARK    3  A    between atoms: _3  and  _6
REMARK    4  A    between atoms: _6  and  _7
REMARK    5  A    between atoms: _10  and  _12
REMARK    6  A    between atoms: _12  and  _13
REMARK    7  A    between atoms: _12  and  _15
REMARK    8  A    between atoms: _15  and  _16
REMARK    9  A    between atoms: _16  and  _17
REMARK   10  A    between atoms: _20  and  _22
REMARK   11  A    between atoms: _22  and  _23
REMARK   12  A    between atoms: _25  and  _27
REMARK   13  A    between atoms: _27  and  _28
REMARK   14  A    between atoms: _27  and  _30
REMARK   15  A    between atoms: _30  and  _31
REMARK   16  A    between atoms: _33  and  _35
REMARK   17  A    between atoms: _35  and  _36
REMARK   18  A    between atoms: _35  and  _38
REMARK   19  A    between atoms: _38  and  _39
REMARK   20  A    between atoms: _44  and  _45
REMARK   21  A    between atoms: _47  and  _49
REMARK   22  A    between atoms: _49  and  _50
REMARK   23  A    between atoms: _53  and  _55
REMARK   24  A    between atoms: _55  and  _56
REMARK   25  A    between atoms: _55  and  _58
REMARK   26  A    between atoms: _58  and  _59
REMARK   27  A    between atoms: _64  and  _65
REMARK   28  A    between atoms: _67  and  _69
REMARK   29  A    between atoms: _69  and  _70
REMARK   30  A    between atoms: _69  and  _72
REMARK   31  A    between atoms: _72  and  _73
REMARK   32  A    between atoms: _78  and  _80
REMARK   33  A    between atoms: _80  and  _81
REMARK   34  A    between atoms: _80  and  _83
REMARK   35  A    between atoms: _83  and  _84
REMARK   36  A    between atoms: _87  and  _89
REMARK   37  A    between atoms: _89  and  _90
REMARK   38  A    between atoms: _89  and  _92
REMARK   39  A    between atoms: _92  and  _93
REMARK   40  A    between atoms: _93  and  _94
REMARK   41  A    between atoms: _99  and  _101
REMARK   42  A    between atoms: _101  and  _102
REMARK   43  A    between atoms: _101  and  _104
REMARK   44  A    between atoms: _104  and  _105
REMARK   45  A    between atoms: _115  and  _117
REMARK   46  A    between atoms: _117  and  _118
REMARK   47  A    between atoms: _117  and  _120
REMARK   48  A    between atoms: _120  and  _121
REMARK   49  A    between atoms: _124  and  _126
REMARK   50  A    between atoms: _126  and  _127
REMARK   51  A    between atoms: _126  and  _129
REMARK   52  A    between atoms: _129  and  _130
REMARK   53  A    between atoms: _133  and  _135
REMARK   54  A    between atoms: _135  and  _136
REMARK   55  A    between atoms: _135  and  _138
REMARK   56  A    between atoms: _138  and  _139
REMARK   57  A    between atoms: _139  and  _140
REMARK   58  A    between atoms: _142  and  _144
REMARK   59  A    between atoms: _144  and  _145
REMARK   60  A    between atoms: _148  and  _150
REMARK   61  A    between atoms: _150  and  _151
REMARK   62  A    between atoms: _154  and  _156
REMARK   63  A    between atoms: _156  and  _157
REMARK   64  A    between atoms: _156  and  _159
REMARK   65  A    between atoms: _159  and  _160
REMARK   66  A    between atoms: _160  and  _161
REMARK   67  A    between atoms: _163  and  _165
REMARK   68  A    between atoms: _165  and  _166
REMARK   69  A    between atoms: _168  and  _170
REMARK   70  A    between atoms: _170  and  _171
REMARK   71  A    between atoms: _170  and  _173
REMARK   72  A    between atoms: _173  and  _174
REMARK   73  A    between atoms: _177  and  _179
REMARK   74  A    between atoms: _179  and  _180
REMARK   75  A    between atoms: _179  and  _182
REMARK   76  A    between atoms: _182  and  _183
REMARK   77  A    between atoms: _183  and  _184
REMARK   78  A    between atoms: _189  and  _191
REMARK   79  A    between atoms: _191  and  _192
REMARK   80  A    between atoms: _191  and  _194
REMARK   81  A    between atoms: _194  and  _195
REMARK   82  A    between atoms: _195  and  _196
REMARK   83  A    between atoms: _196  and  _197
REMARK   84  A    between atoms: _206  and  _208
REMARK   85  A    between atoms: _208  and  _209
REMARK   86  A    between atoms: _208  and  _211
REMARK   87  A    between atoms: _211  and  _212
REMARK   88  A    between atoms: _218  and  _220
REMARK   89  A    between atoms: _220  and  _221
REMARK   90  A    between atoms: _220  and  _223
REMARK   91  A    between atoms: _223  and  _224
REMARK   92  A    between atoms: _227  and  _229
REMARK   93  A    between atoms: _229  and  _230
REMARK   94  A    between atoms: _229  and  _232
REMARK   95  A    between atoms: _232  and  _233
REMARK   96  A    between atoms: _236  and  _238
REMARK   97  A    between atoms: _238  and  _239
REMARK   98  A    between atoms: _238  and  _241
REMARK   99  A    between atoms: _241  and  _242
REMARK  100  A    between atoms: _246  and  _247
REMARK  101  A    between atoms: _252  and  _254
REMARK  102  A    between atoms: _254  and  _255
REMARK  103  A    between atoms: _254  and  _257
REMARK  104  A    between atoms: _257  and  _258
REMARK  105  A    between atoms: _263  and  _265
REMARK  106  A    between atoms: _265  and  _266
REMARK  107  A    between atoms: _265  and  _268
REMARK  108  A    between atoms: _268  and  _269
REMARK  109  A    between atoms: _272  and  _274
REMARK  110  A    between atoms: _274  and  _275
REMARK  111  A    between atoms: _274  and  _277
REMARK  112  A    between atoms: _277  and  _278
REMARK  113  A    between atoms: _278  and  _279
REMARK  114  A    between atoms: _284  and  _286
REMARK  115  A    between atoms: _286  and  _287
REMARK  116  A    between atoms: _290  and  _292
REMARK  117  A    between atoms: _292  and  _293
REMARK  118  A    between atoms: _295  and  _297
REMARK  119  A    between atoms: _297  and  _298
REMARK  120  A    between atoms: _297  and  _300
REMARK  121  A    between atoms: _300  and  _301
REMARK  122  A    between atoms: _304  and  _306
REMARK  123  A    between atoms: _306  and  _307
REMARK  124  A    between atoms: _306  and  _309
REMARK  125  A    between atoms: _309  and  _310
REMARK  126  A    between atoms: _312  and  _314
REMARK  127  A    between atoms: _314  and  _315
REMARK  128  A    between atoms: _314  and  _317
REMARK  129  A    between atoms: _317  and  _318
REMARK  130  A    between atoms: _323  and  _325
REMARK  131  A    between atoms: _325  and  _326
REMARK  132  A    between atoms: _325  and  _328
REMARK  133  A    between atoms: _328  and  _329
REMARK  134  A    between atoms: _329  and  _330
REMARK  135  A    between atoms: _333  and  _335
REMARK  136  A    between atoms: _335  and  _336
REMARK  137  A    between atoms: _339  and  _341
REMARK  138  A    between atoms: _341  and  _342
REMARK  139  A    between atoms: _341  and  _344
REMARK  140  A    between atoms: _344  and  _345
REMARK  141  A    between atoms: _351  and  _353
REMARK  142  A    between atoms: _353  and  _354
REMARK  143  A    between atoms: _353  and  _356
REMARK  144  A    between atoms: _356  and  _357
REMARK  145  A    between atoms: _360  and  _362
REMARK  146  A    between atoms: _362  and  _363
REMARK  147  A    between atoms: _362  and  _365
REMARK  148  A    between atoms: _365  and  _366
REMARK  149  A    between atoms: _369  and  _371
REMARK  150  A    between atoms: _371  and  _372
REMARK  151  A    between atoms: _371  and  _374
REMARK  152  A    between atoms: _374  and  _375
REMARK  153  A    between atoms: _378  and  _380
REMARK  154  A    between atoms: _380  and  _381
REMARK  155  A    between atoms: _380  and  _383
REMARK  156  A    between atoms: _383  and  _384
REMARK  157  A    between atoms: _387  and  _389
REMARK  158  A    between atoms: _389  and  _390
REMARK  159  A    between atoms: _389  and  _392
REMARK  160  A    between atoms: _392  and  _393
REMARK  161  A    between atoms: _396  and  _398
REMARK  162  A    between atoms: _398  and  _399
REMARK  163  A    between atoms: _402  and  _404
REMARK  164  A    between atoms: _404  and  _405
REMARK  165  A    between atoms: _404  and  _407
REMARK  166  A    between atoms: _407  and  _408
REMARK  167  A    between atoms: _410  and  _412
REMARK  168  A    between atoms: _412  and  _413
REMARK  169  A    between atoms: _412  and  _415
REMARK  170  A    between atoms: _418  and  _420
REMARK  171  A    between atoms: _420  and  _421
REMARK  172  A    between atoms: _420  and  _423
REMARK  173  A    between atoms: _423  and  _424
REMARK  174  A    between atoms: _426  and  _428
REMARK  175  A    between atoms: _428  and  _429
REMARK  176  A    between atoms: _428  and  _431
REMARK  177  A    between atoms: _431  and  _432
REMARK  178  A    between atoms: _438  and  _440
REMARK  179  A    between atoms: _440  and  _441
REMARK  180  A    between atoms: _440  and  _443
REMARK  181  A    between atoms: _443  and  _444
REMARK  182  A    between atoms: _447  and  _449
REMARK  183  A    between atoms: _449  and  _450
REMARK  184  A    between atoms: _449  and  _452
REMARK  185  A    between atoms: _452  and  _453
REMARK  186  A    between atoms: _453  and  _454
REMARK  187  A    between atoms: _456  and  _458
REMARK  188  A    between atoms: _458  and  _459
REMARK  189  A    between atoms: _461  and  _463
REMARK  190  A    between atoms: _463  and  _464
REMARK  191  A    between atoms: _463  and  _466
REMARK  192  A    between atoms: _466  and  _467
REMARK  193  A    between atoms: _470  and  _472
REMARK  194  A    between atoms: _472  and  _473
REMARK  195  A    between atoms: _472  and  _475
REMARK  196  A    between atoms: _475  and  _476
REMARK  197  A    between atoms: _482  and  _484
REMARK  198  A    between atoms: _484  and  _485
REMARK  199  A    between atoms: _487  and  _489
REMARK  200  A    between atoms: _489  and  _490
REMARK  201  A    between atoms: _489  and  _492
REMARK  202  A    between atoms: _492  and  _493
REMARK  203  A    between atoms: _493  and  _494
REMARK  204  A    between atoms: _494  and  _495
REMARK  205  A    between atoms: _495  and  _496
REMARK  206  A    between atoms: _500  and  _502
REMARK  207  A    between atoms: _502  and  _503
REMARK  208  A    between atoms: _505  and  _507
REMARK  209  A    between atoms: _507  and  _508
REMARK  210  A    between atoms: _507  and  _510
REMARK  211  A    between atoms: _513  and  _515
REMARK  212  A    between atoms: _515  and  _516
REMARK  213  A    between atoms: _518  and  _520
REMARK  214  A    between atoms: _520  and  _521
REMARK  215  A    between atoms: _520  and  _523
REMARK  216  A    between atoms: _523  and  _524
REMARK                            x       y       z     vdW  Elec       q    Type
REMARK                         _______ _______ _______ _____ _____    ______ ____
ROOT
ATOM      1  O   HOH     1      22.576  -7.327 -17.157  0.00  0.00    +0.000 OA
ENDROOT
TORSDOF 0
REMARK  Name = ../refined-set-2016/4pp0/4pp0_pocket.pdb
REMARK  216 active torsions:
REMARK  status: ('A' for Active; 'I' for Inactive)
REMARK    1  A    between atoms: _1  and  _3
REMARK    2  A    between atoms: _3  and  _4
REMARK    3  A    between atoms: _3  and  _6
REMARK    4  A    between atoms: _6  and  _7
REMARK    5  A    between atoms: _10  and  _12
REMARK    6  A    between atoms: _12  and  _13
REMARK    7  A    between atoms: _12  and  _15
REMARK    8  A    between atoms: _15  and  _16
REMARK    9  A    between atoms: _16  and  _17
REMARK   10  A    between atoms: _20  and  _22
REMARK   11  A    between atoms: _22  and  _23
REMARK   12  A    between atoms: _25  and  _27
REMARK   13  A    between atoms: _27  and  _28
REMARK   14  A    between atoms: _27  and  _30
REMARK   15  A    between atoms: _30  and  _31
REMARK   16  A    between atoms: _33  and  _35
REMARK   17  A    between atoms: _35  and  _36
REMARK   18  A    between atoms: _35  and  _38
REMARK   19  A    between atoms: _38  and  _39
REMARK   20  A    between atoms: _44  and  _45
REMARK   21  A    between atoms: _47  and  _49
REMARK   22  A    between atoms: _49  and  _50
REMARK   23  A    between atoms: _53  and  _55
REMARK   24  A    between atoms: _55  and  _56
REMARK   25  A    between atoms: _55  and  _58
REMARK   26  A    between atoms: _58  and  _59
REMARK   27  A    between atoms: _64  and  _65
REMARK   28  A    between atoms: _67  and  _69
REMARK   29  A    between atoms: _69  and  _70
REMARK   30  A    between atoms: _69  and  _72
REMARK   31  A    between atoms: _72  and  _73
REMARK   32  A    between atoms: _78  and  _80
REMARK   33  A    between atoms: _80  and  _81
REMARK   34  A    between atoms: _80  and  _83
REMARK   35  A    between atoms: _83  and  _84
REMARK   36  A    between atoms: _87  and  _89
REMARK   37  A    between atoms: _89  and  _90
REMARK   38  A    between atoms: _89  and  _92
REMARK   39  A    between atoms: _92  and  _93
REMARK   40  A    between atoms: _93  and  _94
REMARK   41  A    between atoms: _99  and  _101
REMARK   42  A    between atoms: _101  and  _102
REMARK   43  A    between atoms: _101  and  _104
REMARK   44  A    between atoms: _104  and  _105
REMARK   45  A    between atoms: _115  and  _117
REMARK   46  A    between atoms: _117  and  _118
REMARK   47  A    between atoms: _117  and  _120
REMARK   48  A    between atoms: _120  and  _121
REMARK   49  A    between atoms: _124  and  _126
REMARK   50  A    between atoms: _126  and  _127
REMARK   51  A    between atoms: _126  and  _129
REMARK   52  A    between atoms: _129  and  _130
REMARK   53  A    between atoms: _133  and  _135
REMARK   54  A    between atoms: _135  and  _136
REMARK   55  A    between atoms: _135  and  _138
REMARK   56  A    between atoms: _138  and  _139
REMARK   57  A    between atoms: _139  and  _140
REMARK   58  A    between atoms: _142  and  _144
REMARK   59  A    between atoms: _144  and  _145
REMARK   60  A    between atoms: _148  and  _150
REMARK   61  A    between atoms: _150  and  _151
REMARK   62  A    between atoms: _154  and  _156
REMARK   63  A    between atoms: _156  and  _157
REMARK   64  A    between atoms: _156  and  _159
REMARK   65  A    between atoms: _159  and  _160
REMARK   66  A    between atoms: _160  and  _161
REMARK   67  A    between atoms: _163  and  _165
REMARK   68  A    between atoms: _165  and  _166
REMARK   69  A    between atoms: _168  and  _170
REMARK   70  A    between atoms: _170  and  _171
REMARK   71  A    between atoms: _170  and  _173
REMARK   72  A    between atoms: _173  and  _174
REMARK   73  A    between atoms: _177  and  _179
REMARK   74  A    between atoms: _179  and  _180
REMARK   75  A    between atoms: _179  and  _182
REMARK   76  A    between atoms: _182  and  _183
REMARK   77  A    between atoms: _183  and  _184
REMARK   78  A    between atoms: _189  and  _191
REMARK   79  A    between atoms: _191  and  _192
REMARK   80  A    between atoms: _191  and  _194
REMARK   81  A    between atoms: _194  and  _195
REMARK   82  A    between atoms: _195  and  _196
REMARK   83  A    between atoms: _196  and  _197
REMARK   84  A    between atoms: _206  and  _208
REMARK   85  A    between atoms: _208  and  _209
REMARK   86  A    between atoms: _208  and  _211
REMARK   87  A    between atoms: _211  and  _212
REMARK   88  A    between atoms: _218  and  _220
REMARK   89  A    between atoms: _220  and  _221
REMARK   90  A    between atoms: _220  and  _223
REMARK   91  A    between atoms: _223  and  _224
REMARK   92  A    between atoms: _227  and  _229
REMARK   93  A    between atoms: _229  and  _230
REMARK   94  A    between atoms: _229  and  _232
REMARK   95  A    between atoms: _232  and  _233
REMARK   96  A    between atoms: _236  and  _238
REMARK   97  A    between atoms: _238  and  _239
REMARK   98  A    between atoms: _238  and  _241
REMARK   99  A    between atoms: _241  and  _242
REMARK  100  A    between atoms: _246  and  _247
REMARK  101  A    between atoms: _252  and  _254
REMARK  102  A    between atoms: _254  and  _255
REMARK  103  A    between atoms: _254  and  _257
REMARK  104  A    between atoms: _257  and  _258
REMARK  105  A    between atoms: _263  and  _265
REMARK  106  A    between atoms: _265  and  _266
REMARK  107  A    between atoms: _265  and  _268
REMARK  108  A    between atoms: _268  and  _269
REMARK  109  A    between atoms: _272  and  _274
REMARK  110  A    between atoms: _274  and  _275
REMARK  111  A    between atoms: _274  and  _277
REMARK  112  A    between atoms: _277  and  _278
REMARK  113  A    between atoms: _278  and  _279
REMARK  114  A    between atoms: _284  and  _286
REMARK  115  A    between atoms: _286  and  _287
REMARK  116  A    between atoms: _290  and  _292
REMARK  117  A    between atoms: _292  and  _293
REMARK  118  A    between atoms: _295  and  _297
REMARK  119  A    between atoms: _297  and  _298
REMARK  120  A    between atoms: _297  and  _300
REMARK  121  A    between atoms: _300  and  _301
REMARK  122  A    between atoms: _304  and  _306
REMARK  123  A    between atoms: _306  and  _307
REMARK  124  A    between atoms: _306  and  _309
REMARK  125  A    between atoms: _309  and  _310
REMARK  126  A    between atoms: _312  and  _314
REMARK  127  A    between atoms: _314  and  _315
REMARK  128  A    between atoms: _314  and  _317
REMARK  129  A    between atoms: _317  and  _318
REMARK  130  A    between atoms: _323  and  _325
REMARK  131  A    between atoms: _325  and  _326
REMARK  132  A    between atoms: _325  and  _328
REMARK  133  A    between atoms: _328  and  _329
REMARK  134  A    between atoms: _329  and  _330
REMARK  135  A    between atoms: _333  and  _335
REMARK  136  A    between atoms: _335  and  _336
REMARK  137  A    between atoms: _339  and  _341
REMARK  138  A    between atoms: _341  and  _342
REMARK  139  A    between atoms: _341  and  _344
REMARK  140  A    between atoms: _344  and  _345
REMARK  141  A    between atoms: _351  and  _353
REMARK  142  A    between atoms: _353  and  _354
REMARK  143  A    between atoms: _353  and  _356
REMARK  144  A    between atoms: _356  and  _357
REMARK  145  A    between atoms: _360  and  _362
REMARK  146  A    between atoms: _362  and  _363
REMARK  147  A    between atoms: _362  and  _365
REMARK  148  A    between atoms: _365  and  _366
REMARK  149  A    between atoms: _369  and  _371
REMARK  150  A    between atoms: _371  and  _372
REMARK  151  A    between atoms: _371  and  _374
REMARK  152  A    between atoms: _374  and  _375
REMARK  153  A    between atoms: _378  and  _380
REMARK  154  A    between atoms: _380  and  _381
REMARK  155  A    between atoms: _380  and  _383
REMARK  156  A    between atoms: _383  and  _384
REMARK  157  A    between atoms: _387  and  _389
REMARK  158  A    between atoms: _389  and  _390
REMARK  159  A    between atoms: _389  and  _392
REMARK  160  A    between atoms: _392  and  _393
REMARK  161  A    between atoms: _396  and  _398
REMARK  162  A    between atoms: _398  and  _399
REMARK  163  A    between atoms: _402  and  _404
REMARK  164  A    between atoms: _404  and  _405
REMARK  165  A    between atoms: _404  and  _407
REMARK  166  A    between atoms: _407  and  _408
REMARK  167  A    between atoms: _410  and  _412
REMARK  168  A    between atoms: _412  and  _413
REMARK  169  A    between atoms: _412  and  _415
REMARK  170  A    between atoms: _418  and  _420
REMARK  171  A    between atoms: _420  and  _421
REMARK  172  A    between atoms: _420  and  _423
REMARK  173  A    between atoms: _423  and  _424
REMARK  174  A    between atoms: _426  and  _428
REMARK  175  A    between atoms: _428  and  _429
REMARK  176  A    between atoms: _428  and  _431
REMARK  177  A    between atoms: _431  and  _432
REMARK  178  A    between atoms: _438  and  _440
REMARK  179  A    between atoms: _440  and  _441
REMARK  180  A    between atoms: _440  and  _443
REMARK  181  A    between atoms: _443  and  _444
REMARK  182  A    between atoms: _447  and  _449
REMARK  183  A    between atoms: _449  and  _450
REMARK  184  A    between atoms: _449  and  _452
REMARK  185  A    between atoms: _452  and  _453
REMARK  186  A    between atoms: _453  and  _454
REMARK  187  A    between atoms: _456  and  _458
REMARK  188  A    between atoms: _458  and  _459
REMARK  189  A    between atoms: _461  and  _463
REMARK  190  A    between atoms: _463  and  _464
REMARK  191  A    between atoms: _463  and  _466
REMARK  192  A    between atoms: _466  and  _467
REMARK  193  A    between atoms: _470  and  _472
REMARK  194  A    between atoms: _472  and  _473
REMARK  195  A    between atoms: _472  and  _475
REMARK  196  A    between atoms: _475  and  _476
REMARK  197  A    between atoms: _482  and  _484
REMARK  198  A    between atoms: _484  and  _485
REMARK  199  A    between atoms: _487  and  _489
REMARK  200  A    between atoms: _489  and  _490
REMARK  201  A    between atoms: _489  and  _492
REMARK  202  A    between atoms: _492  and  _493
REMARK  203  A    between atoms: _493  and  _494
REMARK  204  A    between atoms: _494  and  _495
REMARK  205  A    between atoms: _495  and  _496
REMARK  206  A    between atoms: _500  and  _502
REMARK  207  A    between atoms: _502  and  _503
REMARK  208  A    between atoms: _505  and  _507
REMARK  209  A    between atoms: _507  and  _508
REMARK  210  A    between atoms: _507  and  _510
REMARK  211  A    between atoms: _513  and  _515
REMARK  212  A    between atoms: _515  and  _516
REMARK  213  A    between atoms: _518  and  _520
REMARK  214  A    between atoms: _520  and  _521
REMARK  215  A    between atoms: _520  and  _523
REMARK  216  A    between atoms: _523  and  _524
REMARK                            x       y       z     vdW  Elec       q    Type
REMARK                         _______ _______ _______ _____ _____    ______ ____
ROOT
ATOM      1  O   HOH     1      10.689  -6.159  -7.413  0.00  0.00    +0.000 OA
ENDROOT
TORSDOF 0
REMARK  Name = ../refined-set-2016/4pp0/4pp0_pocket.pdb
REMARK  216 active torsions:
REMARK  status: ('A' for Active; 'I' for Inactive)
REMARK    1  A    between atoms: _1  and  _3
REMARK    2  A    between atoms: _3  and  _4
REMARK    3  A    between atoms: _3  and  _6
REMARK    4  A    between atoms: _6  and  _7
REMARK    5  A    between atoms: _10  and  _12
REMARK    6  A    between atoms: _12  and  _13
REMARK    7  A    between atoms: _12  and  _15
REMARK    8  A    between atoms: _15  and  _16
REMARK    9  A    between atoms: _16  and  _17
REMARK   10  A    between atoms: _20  and  _22
REMARK   11  A    between atoms: _22  and  _23
REMARK   12  A    between atoms: _25  and  _27
REMARK   13  A    between atoms: _27  and  _28
REMARK   14  A    between atoms: _27  and  _30
REMARK   15  A    between atoms: _30  and  _31
REMARK   16  A    between atoms: _33  and  _35
REMARK   17  A    between atoms: _35  and  _36
REMARK   18  A    between atoms: _35  and  _38
REMARK   19  A    between atoms: _38  and  _39
REMARK   20  A    between atoms: _44  and  _45
REMARK   21  A    between atoms: _47  and  _49
REMARK   22  A    between atoms: _49  and  _50
REMARK   23  A    between atoms: _53  and  _55
REMARK   24  A    between atoms: _55  and  _56
REMARK   25  A    between atoms: _55  and  _58
REMARK   26  A    between atoms: _58  and  _59
REMARK   27  A    between atoms: _64  and  _65
REMARK   28  A    between atoms: _67  and  _69
REMARK   29  A    between atoms: _69  and  _70
REMARK   30  A    between atoms: _69  and  _72
REMARK   31  A    between atoms: _72  and  _73
REMARK   32  A    between atoms: _78  and  _80
REMARK   33  A    between atoms: _80  and  _81
REMARK   34  A    between atoms: _80  and  _83
REMARK   35  A    between atoms: _83  and  _84
REMARK   36  A    between atoms: _87  and  _89
REMARK   37  A    between atoms: _89  and  _90
REMARK   38  A    between atoms: _89  and  _92
REMARK   39  A    between atoms: _92  and  _93
REMARK   40  A    between atoms: _93  and  _94
REMARK   41  A    between atoms: _99  and  _101
REMARK   42  A    between atoms: _101  and  _102
REMARK   43  A    between atoms: _101  and  _104
REMARK   44  A    between atoms: _104  and  _105
REMARK   45  A    between atoms: _115  and  _117
REMARK   46  A    between atoms: _117  and  _118
REMARK   47  A    between atoms: _117  and  _120
REMARK   48  A    between atoms: _120  and  _121
REMARK   49  A    between atoms: _124  and  _126
REMARK   50  A    between atoms: _126  and  _127
REMARK   51  A    between atoms: _126  and  _129
REMARK   52  A    between atoms: _129  and  _130
REMARK   53  A    between atoms: _133  and  _135
REMARK   54  A    between atoms: _135  and  _136
REMARK   55  A    between atoms: _135  and  _138
REMARK   56  A    between atoms: _138  and  _139
REMARK   57  A    between atoms: _139  and  _140
REMARK   58  A    between atoms: _142  and  _144
REMARK   59  A    between atoms: _144  and  _145
REMARK   60  A    between atoms: _148  and  _150
REMARK   61  A    between atoms: _150  and  _151
REMARK   62  A    between atoms: _154  and  _156
REMARK   63  A    between atoms: _156  and  _157
REMARK   64  A    between atoms: _156  and  _159
REMARK   65  A    between atoms: _159  and  _160
REMARK   66  A    between atoms: _160  and  _161
REMARK   67  A    between atoms: _163  and  _165
REMARK   68  A    between atoms: _165  and  _166
REMARK   69  A    between atoms: _168  and  _170
REMARK   70  A    between atoms: _170  and  _171
REMARK   71  A    between atoms: _170  and  _173
REMARK   72  A    between atoms: _173  and  _174
REMARK   73  A    between atoms: _177  and  _179
REMARK   74  A    between atoms: _179  and  _180
REMARK   75  A    between atoms: _179  and  _182
REMARK   76  A    between atoms: _182  and  _183
REMARK   77  A    between atoms: _183  and  _184
REMARK   78  A    between atoms: _189  and  _191
REMARK   79  A    between atoms: _191  and  _192
REMARK   80  A    between atoms: _191  and  _194
REMARK   81  A    between atoms: _194  and  _195
REMARK   82  A    between atoms: _195  and  _196
REMARK   83  A    between atoms: _196  and  _197
REMARK   84  A    between atoms: _206  and  _208
REMARK   85  A    between atoms: _208  and  _209
REMARK   86  A    between atoms: _208  and  _211
REMARK   87  A    between atoms: _211  and  _212
REMARK   88  A    between atoms: _218  and  _220
REMARK   89  A    between atoms: _220  and  _221
REMARK   90  A    between atoms: _220  and  _223
REMARK   91  A    between atoms: _223  and  _224
REMARK   92  A    between atoms: _227  and  _229
REMARK   93  A    between atoms: _229  and  _230
REMARK   94  A    between atoms: _229  and  _232
REMARK   95  A    between atoms: _232  and  _233
REMARK   96  A    between atoms: _236  and  _238
REMARK   97  A    between atoms: _238  and  _239
REMARK   98  A    between atoms: _238  and  _241
REMARK   99  A    between atoms: _241  and  _242
REMARK  100  A    between atoms: _246  and  _247
REMARK  101  A    between atoms: _252  and  _254
REMARK  102  A    between atoms: _254  and  _255
REMARK  103  A    between atoms: _254  and  _257
REMARK  104  A    between atoms: _257  and  _258
REMARK  105  A    between atoms: _263  and  _265
REMARK  106  A    between atoms: _265  and  _266
REMARK  107  A    between atoms: _265  and  _268
REMARK  108  A    between atoms: _268  and  _269
REMARK  109  A    between atoms: _272  and  _274
REMARK  110  A    between atoms: _274  and  _275
REMARK  111  A    between atoms: _274  and  _277
REMARK  112  A    between atoms: _277  and  _278
REMARK  113  A    between atoms: _278  and  _279
REMARK  114  A    between atoms: _284  and  _286
REMARK  115  A    between atoms: _286  and  _287
REMARK  116  A    between atoms: _290  and  _292
REMARK  117  A    between atoms: _292  and  _293
REMARK  118  A    between atoms: _295  and  _297
REMARK  119  A    between atoms: _297  and  _298
REMARK  120  A    between atoms: _297  and  _300
REMARK  121  A    between atoms: _300  and  _301
REMARK  122  A    between atoms: _304  and  _306
REMARK  123  A    between atoms: _306  and  _307
REMARK  124  A    between atoms: _306  and  _309
REMARK  125  A    between atoms: _309  and  _310
REMARK  126  A    between atoms: _312  and  _314
REMARK  127  A    between atoms: _314  and  _315
REMARK  128  A    between atoms: _314  and  _317
REMARK  129  A    between atoms: _317  and  _318
REMARK  130  A    between atoms: _323  and  _325
REMARK  131  A    between atoms: _325  and  _326
REMARK  132  A    between atoms: _325  and  _328
REMARK  133  A    between atoms: _328  and  _329
REMARK  134  A    between atoms: _329  and  _330
REMARK  135  A    between atoms: _333  and  _335
REMARK  136  A    between atoms: _335  and  _336
REMARK  137  A    between atoms: _339  and  _341
REMARK  138  A    between atoms: _341  and  _342
REMARK  139  A    between atoms: _341  and  _344
REMARK  140  A    between atoms: _344  and  _345
REMARK  141  A    between atoms: _351  and  _353
REMARK  142  A    between atoms: _353  and  _354
REMARK  143  A    between atoms: _353  and  _356
REMARK  144  A    between atoms: _356  and  _357
REMARK  145  A    between atoms: _360  and  _362
REMARK  146  A    between atoms: _362  and  _363
REMARK  147  A    between atoms: _362  and  _365
REMARK  148  A    between atoms: _365  and  _366
REMARK  149  A    between atoms: _369  and  _371
REMARK  150  A    between atoms: _371  and  _372
REMARK  151  A    between atoms: _371  and  _374
REMARK  152  A    between atoms: _374  and  _375
REMARK  153  A    between atoms: _378  and  _380
REMARK  154  A    between atoms: _380  and  _381
REMARK  155  A    between atoms: _380  and  _383
REMARK  156  A    between atoms: _383  and  _384
REMARK  157  A    between atoms: _387  and  _389
REMARK  158  A    between atoms: _389  and  _390
REMARK  159  A    between atoms: _389  and  _392
REMARK  160  A    between atoms: _392  and  _393
REMARK  161  A    between atoms: _396  and  _398
REMARK  162  A    between atoms: _398  and  _399
REMARK  163  A    between atoms: _402  and  _404
REMARK  164  A    between atoms: _404  and  _405
REMARK  165  A    between atoms: _404  and  _407
REMARK  166  A    between atoms: _407  and  _408
REMARK  167  A    between atoms: _410  and  _412
REMARK  168  A    between atoms: _412  and  _413
REMARK  169  A    between atoms: _412  and  _415
REMARK  170  A    between atoms: _418  and  _420
REMARK  171  A    between atoms: _420  and  _421
REMARK  172  A    between atoms: _420  and  _423
REMARK  173  A    between atoms: _423  and  _424
REMARK  174  A    between atoms: _426  and  _428
REMARK  175  A    between atoms: _428  and  _429
REMARK  176  A    between atoms: _428  and  _431
REMARK  177  A    between atoms: _431  and  _432
REMARK  178  A    between atoms: _438  and  _440
REMARK  179  A    between atoms: _440  and  _441
REMARK  180  A    between atoms: _440  and  _443
REMARK  181  A    between atoms: _443  and  _444
REMARK  182  A    between atoms: _447  and  _449
REMARK  183  A    between atoms: _449  and  _450
REMARK  184  A    between atoms: _449  and  _452
REMARK  185  A    between atoms: _452  and  _453
REMARK  186  A    between atoms: _453  and  _454
REMARK  187  A    between atoms: _456  and  _458
REMARK  188  A    between atoms: _458  and  _459
REMARK  189  A    between atoms: _461  and  _463
REMARK  190  A    between atoms: _463  and  _464
REMARK  191  A    between atoms: _463  and  _466
REMARK  192  A    between atoms: _466  and  _467
REMARK  193  A    between atoms: _470  and  _472
REMARK  194  A    between atoms: _472  and  _473
REMARK  195  A    between atoms: _472  and  _475
REMARK  196  A    between atoms: _475  and  _476
REMARK  197  A    between atoms: _482  and  _484
REMARK  198  A    between atoms: _484  and  _485
REMARK  199  A    between atoms: _487  and  _489
REMARK  200  A    between atoms: _489  and  _490
REMARK  201  A    between atoms: _489  and  _492
REMARK  202  A    between atoms: _492  and  _493
REMARK  203  A    between atoms: _493  and  _494
REMARK  204  A    between atoms: _494  and  _495
REMARK  205  A    between atoms: _495  and  _496
REMARK  206  A    between atoms: _500  and  _502
REMARK  207  A    between atoms: _502  and  _503
REMARK  208  A    between atoms: _505  and  _507
REMARK  209  A    between atoms: _507  and  _508
REMARK  210  A    between atoms: _507  and  _510
REMARK  211  A    between atoms: _513  and  _515
REMARK  212  A    between atoms: _515  and  _516
REMARK  213  A    between atoms: _518  and  _520
REMARK  214  A    between atoms: _520  and  _521
REMARK  215  A    between atoms: _520  and  _523
REMARK  216  A    between atoms: _523  and  _524
REMARK                            x       y       z     vdW  Elec       q    Type
REMARK                         _______ _______ _______ _____ _____    ______ ____
ROOT
ATOM      1  O   HOH     1      17.142  -6.507   2.938  0.00  0.00    +0.000 OA
ENDROOT
TORSDOF 0
REMARK  Name = ../refined-set-2016/4pp0/4pp0_pocket.pdb
REMARK  216 active torsions:
REMARK  status: ('A' for Active; 'I' for Inactive)
REMARK    1  A    between atoms: _1  and  _3
REMARK    2  A    between atoms: _3  and  _4
REMARK    3  A    between atoms: _3  and  _6
REMARK    4  A    between atoms: _6  and  _7
REMARK    5  A    between atoms: _10  and  _12
REMARK    6  A    between atoms: _12  and  _13
REMARK    7  A    between atoms: _12  and  _15
REMARK    8  A    between atoms: _15  and  _16
REMARK    9  A    between atoms: _16  and  _17
REMARK   10  A    between atoms: _20  and  _22
REMARK   11  A    between atoms: _22  and  _23
REMARK   12  A    between atoms: _25  and  _27
REMARK   13  A    between atoms: _27  and  _28
REMARK   14  A    between atoms: _27  and  _30
REMARK   15  A    between atoms: _30  and  _31
REMARK   16  A    between atoms: _33  and  _35
REMARK   17  A    between atoms: _35  and  _36
REMARK   18  A    between atoms: _35  and  _38
REMARK   19  A    between atoms: _38  and  _39
REMARK   20  A    between atoms: _44  and  _45
REMARK   21  A    between atoms: _47  and  _49
REMARK   22  A    between atoms: _49  and  _50
REMARK   23  A    between atoms: _53  and  _55
REMARK   24  A    between atoms: _55  and  _56
REMARK   25  A    between atoms: _55  and  _58
REMARK   26  A    between atoms: _58  and  _59
REMARK   27  A    between atoms: _64  and  _65
REMARK   28  A    between atoms: _67  and  _69
REMARK   29  A    between atoms: _69  and  _70
REMARK   30  A    between atoms: _69  and  _72
REMARK   31  A    between atoms: _72  and  _73
REMARK   32  A    between atoms: _78  and  _80
REMARK   33  A    between atoms: _80  and  _81
REMARK   34  A    between atoms: _80  and  _83
REMARK   35  A    between atoms: _83  and  _84
REMARK   36  A    between atoms: _87  and  _89
REMARK   37  A    between atoms: _89  and  _90
REMARK   38  A    between atoms: _89  and  _92
REMARK   39  A    between atoms: _92  and  _93
REMARK   40  A    between atoms: _93  and  _94
REMARK   41  A    between atoms: _99  and  _101
REMARK   42  A    between atoms: _101  and  _102
REMARK   43  A    between atoms: _101  and  _104
REMARK   44  A    between atoms: _104  and  _105
REMARK   45  A    between atoms: _115  and  _117
REMARK   46  A    between atoms: _117  and  _118
REMARK   47  A    between atoms: _117  and  _120
REMARK   48  A    between atoms: _120  and  _121
REMARK   49  A    between atoms: _124  and  _126
REMARK   50  A    between atoms: _126  and  _127
REMARK   51  A    between atoms: _126  and  _129
REMARK   52  A    between atoms: _129  and  _130
REMARK   53  A    between atoms: _133  and  _135
REMARK   54  A    between atoms: _135  and  _136
REMARK   55  A    between atoms: _135  and  _138
REMARK   56  A    between atoms: _138  and  _139
REMARK   57  A    between atoms: _139  and  _140
REMARK   58  A    between atoms: _142  and  _144
REMARK   59  A    between atoms: _144  and  _145
REMARK   60  A    between atoms: _148  and  _150
REMARK   61  A    between atoms: _150  and  _151
REMARK   62  A    between atoms: _154  and  _156
REMARK   63  A    between atoms: _156  and  _157
REMARK   64  A    between atoms: _156  and  _159
REMARK   65  A    between atoms: _159  and  _160
REMARK   66  A    between atoms: _160  and  _161
REMARK   67  A    between atoms: _163  and  _165
REMARK   68  A    between atoms: _165  and  _166
REMARK   69  A    between atoms: _168  and  _170
REMARK   70  A    between atoms: _170  and  _171
REMARK   71  A    between atoms: _170  and  _173
REMARK   72  A    between atoms: _173  and  _174
REMARK   73  A    between atoms: _177  and  _179
REMARK   74  A    between atoms: _179  and  _180
REMARK   75  A    between atoms: _179  and  _182
REMARK   76  A    between atoms: _182  and  _183
REMARK   77  A    between atoms: _183  and  _184
REMARK   78  A    between atoms: _189  and  _191
REMARK   79  A    between atoms: _191  and  _192
REMARK   80  A    between atoms: _191  and  _194
REMARK   81  A    between atoms: _194  and  _195
REMARK   82  A    between atoms: _195  and  _196
REMARK   83  A    between atoms: _196  and  _197
REMARK   84  A    between atoms: _206  and  _208
REMARK   85  A    between atoms: _208  and  _209
REMARK   86  A    between atoms: _208  and  _211
REMARK   87  A    between atoms: _211  and  _212
REMARK   88  A    between atoms: _218  and  _220
REMARK   89  A    between atoms: _220  and  _221
REMARK   90  A    between atoms: _220  and  _223
REMARK   91  A    between atoms: _223  and  _224
REMARK   92  A    between atoms: _227  and  _229
REMARK   93  A    between atoms: _229  and  _230
REMARK   94  A    between atoms: _229  and  _232
REMARK   95  A    between atoms: _232  and  _233
REMARK   96  A    between atoms: _236  and  _238
REMARK   97  A    between atoms: _238  and  _239
REMARK   98  A    between atoms: _238  and  _241
REMARK   99  A    between atoms: _241  and  _242
REMARK  100  A    between atoms: _246  and  _247
REMARK  101  A    between atoms: _252  and  _254
REMARK  102  A    between atoms: _254  and  _255
REMARK  103  A    between atoms: _254  and  _257
REMARK  104  A    between atoms: _257  and  _258
REMARK  105  A    between atoms: _263  and  _265
REMARK  106  A    between atoms: _265  and  _266
REMARK  107  A    between atoms: _265  and  _268
REMARK  108  A    between atoms: _268  and  _269
REMARK  109  A    between atoms: _272  and  _274
REMARK  110  A    between atoms: _274  and  _275
REMARK  111  A    between atoms: _274  and  _277
REMARK  112  A    between atoms: _277  and  _278
REMARK  113  A    between atoms: _278  and  _279
REMARK  114  A    between atoms: _284  and  _286
REMARK  115  A    between atoms: _286  and  _287
REMARK  116  A    between atoms: _290  and  _292
REMARK  117  A    between atoms: _292  and  _293
REMARK  118  A    between atoms: _295  and  _297
REMARK  119  A    between atoms: _297  and  _298
REMARK  120  A    between atoms: _297  and  _300
REMARK  121  A    between atoms: _300  and  _301
REMARK  122  A    between atoms: _304  and  _306
REMARK  123  A    between atoms: _306  and  _307
REMARK  124  A    between atoms: _306  and  _309
REMARK  125  A    between atoms: _309  and  _310
REMARK  126  A    between atoms: _312  and  _314
REMARK  127  A    between atoms: _314  and  _315
REMARK  128  A    between atoms: _314  and  _317
REMARK  129  A    between atoms: _317  and  _318
REMARK  130  A    between atoms: _323  and  _325
REMARK  131  A    between atoms: _325  and  _326
REMARK  132  A    between atoms: _325  and  _328
REMARK  133  A    between atoms: _328  and  _329
REMARK  134  A    between atoms: _329  and  _330
REMARK  135  A    between atoms: _333  and  _335
REMARK  136  A    between atoms: _335  and  _336
REMARK  137  A    between atoms: _339  and  _341
REMARK  138  A    between atoms: _341  and  _342
REMARK  139  A    between atoms: _341  and  _344
REMARK  140  A    between atoms: _344  and  _345
REMARK  141  A    between atoms: _351  and  _353
REMARK  142  A    between atoms: _353  and  _354
REMARK  143  A    between atoms: _353  and  _356
REMARK  144  A    between atoms: _356  and  _357
REMARK  145  A    between atoms: _360  and  _362
REMARK  146  A    between atoms: _362  and  _363
REMARK  147  A    between atoms: _362  and  _365
REMARK  148  A    between atoms: _365  and  _366
REMARK  149  A    between atoms: _369  and  _371
REMARK  150  A    between atoms: _371  and  _372
REMARK  151  A    between atoms: _371  and  _374
REMARK  152  A    between atoms: _374  and  _375
REMARK  153  A    between atoms: _378  and  _380
REMARK  154  A    between atoms: _380  and  _381
REMARK  155  A    between atoms: _380  and  _383
REMARK  156  A    between atoms: _383  and  _384
REMARK  157  A    between atoms: _387  and  _389
REMARK  158  A    between atoms: _389  and  _390
REMARK  159  A    between atoms: _389  and  _392
REMARK  160  A    between atoms: _392  and  _393
REMARK  161  A    between atoms: _396  and  _398
REMARK  162  A    between atoms: _398  and  _399
REMARK  163  A    between atoms: _402  and  _404
REMARK  164  A    between atoms: _404  and  _405
REMARK  165  A    between atoms: _404  and  _407
REMARK  166  A    between atoms: _407  and  _408
REMARK  167  A    between atoms: _410  and  _412
REMARK  168  A    between atoms: _412  and  _413
REMARK  169  A    between atoms: _412  and  _415
REMARK  170  A    between atoms: _418  and  _420
REMARK  171  A    between atoms: _420  and  _421
REMARK  172  A    between atoms: _420  and  _423
REMARK  173  A    between atoms: _423  and  _424
REMARK  174  A    between atoms: _426  and  _428
REMARK  175  A    between atoms: _428  and  _429
REMARK  176  A    between atoms: _428  and  _431
REMARK  177  A    between atoms: _431  and  _432
REMARK  178  A    between atoms: _438  and  _440
REMARK  179  A    between atoms: _440  and  _441
REMARK  180  A    between atoms: _440  and  _443
REMARK  181  A    between atoms: _443  and  _444
REMARK  182  A    between atoms: _447  and  _449
REMARK  183  A    between atoms: _449  and  _450
REMARK  184  A    between atoms: _449  and  _452
REMARK  185  A    between atoms: _452  and  _453
REMARK  186  A    between atoms: _453  and  _454
REMARK  187  A    between atoms: _456  and  _458
REMARK  188  A    between atoms: _458  and  _459
REMARK  189  A    between atoms: _461  and  _463
REMARK  190  A    between atoms: _463  and  _464
REMARK  191  A    between atoms: _463  and  _466
REMARK  192  A    between atoms: _466  and  _467
REMARK  193  A    between atoms: _470  and  _472
REMARK  194  A    between atoms: _472  and  _473
REMARK  195  A    between atoms: _472  and  _475
REMARK  196  A    between atoms: _475  and  _476
REMARK  197  A    between atoms: _482  and  _484
REMARK  198  A    between atoms: _484  and  _485
REMARK  199  A    between atoms: _487  and  _489
REMARK  200  A    between atoms: _489  and  _490
REMARK  201  A    between atoms: _489  and  _492
REMARK  202  A    between atoms: _492  and  _493
REMARK  203  A    between atoms: _493  and  _494
REMARK  204  A    between atoms: _494  and  _495
REMARK  205  A    between atoms: _495  and  _496
REMARK  206  A    between atoms: _500  and  _502
REMARK  207  A    between atoms: _502  and  _503
REMARK  208  A    between atoms: _505  and  _507
REMARK  209  A    between atoms: _507  and  _508
REMARK  210  A    between atoms: _507  and  _510
REMARK  211  A    between atoms: _513  and  _515
REMARK  212  A    between atoms: _515  and  _516
REMARK  213  A    between atoms: _518  and  _520
REMARK  214  A    between atoms: _520  and  _521
REMARK  215  A    between atoms: _520  and  _523
REMARK  216  A    between atoms: _523  and  _524
REMARK                            x       y       z     vdW  Elec       q    Type
REMARK                         _______ _______ _______ _____ _____    ______ ____
ROOT
ATOM      1  O   HOH     1      15.982  -8.712   1.738  0.00  0.00    +0.000 OA
ENDROOT
TORSDOF 0
