REMARK  Name = ../refined-set-2016/1nfu/1nfu_pocket.pdb
REMARK  206 active torsions:
REMARK  status: ('A' for Active; 'I' for Inactive)
REMARK    1  A    between atoms: _1  and  _5
REMARK    2  A    between atoms: _5  and  _6
REMARK    3  A    between atoms: _5  and  _8
REMARK    4  A    between atoms: _8  and  _9
REMARK    5  A    between atoms: _12  and  _14
REMARK    6  A    between atoms: _14  and  _15
REMARK    7  A    between atoms: _14  and  _17
REMARK    8  A    between atoms: _20  and  _22
REMARK    9  A    between atoms: _22  and  _23
REMARK   10  A    between atoms: _22  and  _25
REMARK   11  A    between atoms: _25  and  _26
REMARK   12  A    between atoms: _32  and  _34
REMARK   13  A    between atoms: _34  and  _35
REMARK   14  A    between atoms: _34  and  _37
REMARK   15  A    between atoms: _37  and  _38
REMARK   16  A    between atoms: _43  and  _45
REMARK   17  A    between atoms: _45  and  _46
REMARK   18  A    between atoms: _45  and  _48
REMARK   19  A    between atoms: _48  and  _49
REMARK   20  A    between atoms: _49  and  _50
REMARK   21  A    between atoms: _55  and  _57
REMARK   22  A    between atoms: _57  and  _58
REMARK   23  A    between atoms: _57  and  _60
REMARK   24  A    between atoms: _60  and  _61
REMARK   25  A    between atoms: _64  and  _66
REMARK   26  A    between atoms: _66  and  _67
REMARK   27  A    between atoms: _66  and  _69
REMARK   28  A    between atoms: _69  and  _70
REMARK   29  A    between atoms: _70  and  _71
REMARK   30  A    between atoms: _71  and  _72
REMARK   31  A    between atoms: _72  and  _73
REMARK   32  A    between atoms: _77  and  _79
REMARK   33  A    between atoms: _79  and  _80
REMARK   34  A    between atoms: _79  and  _82
REMARK   35  A    between atoms: _82  and  _83
REMARK   36  A    between atoms: _83  and  _84
REMARK   37  A    between atoms: _87  and  _89
REMARK   38  A    between atoms: _89  and  _90
REMARK   39  A    between atoms: _89  and  _92
REMARK   40  A    between atoms: _92  and  _93
REMARK   41  A    between atoms: _96  and  _98
REMARK   42  A    between atoms: _98  and  _99
REMARK   43  A    between atoms: _98  and  _101
REMARK   44  A    between atoms: _101  and  _102
REMARK   45  A    between atoms: _107  and  _108
REMARK   46  A    between atoms: _110  and  _112
REMARK   47  A    between atoms: _112  and  _113
REMARK   48  A    between atoms: _112  and  _115
REMARK   49  A    between atoms: _115  and  _116
REMARK   50  A    between atoms: _119  and  _121
REMARK   51  A    between atoms: _121  and  _122
REMARK   52  A    between atoms: _121  and  _124
REMARK   53  A    between atoms: _127  and  _129
REMARK   54  A    between atoms: _129  and  _130
REMARK   55  A    between atoms: _129  and  _132
REMARK   56  A    between atoms: _132  and  _133
REMARK   57  A    between atoms: _133  and  _134
REMARK   58  A    between atoms: _134  and  _135
REMARK   59  A    between atoms: _144  and  _146
REMARK   60  A    between atoms: _146  and  _147
REMARK   61  A    between atoms: _146  and  _149
REMARK   62  A    between atoms: _149  and  _150
REMARK   63  A    between atoms: _155  and  _157
REMARK   64  A    between atoms: _157  and  _158
REMARK   65  A    between atoms: _157  and  _160
REMARK   66  A    between atoms: _160  and  _161
REMARK   67  A    between atoms: _161  and  _162
REMARK   68  A    between atoms: _165  and  _167
REMARK   69  A    between atoms: _167  and  _168
REMARK   70  A    between atoms: _167  and  _170
REMARK   71  A    between atoms: _170  and  _171
REMARK   72  A    between atoms: _171  and  _172
REMARK   73  A    between atoms: _172  and  _173
REMARK   74  A    between atoms: _173  and  _174
REMARK   75  A    between atoms: _178  and  _180
REMARK   76  A    between atoms: _180  and  _181
REMARK   77  A    between atoms: _180  and  _183
REMARK   78  A    between atoms: _186  and  _188
REMARK   79  A    between atoms: _188  and  _189
REMARK   80  A    between atoms: _188  and  _191
REMARK   81  A    between atoms: _191  and  _192
REMARK   82  A    between atoms: _194  and  _196
REMARK   83  A    between atoms: _196  and  _197
REMARK   84  A    between atoms: _196  and  _199
REMARK   85  A    between atoms: _199  and  _200
REMARK   86  A    between atoms: _202  and  _204
REMARK   87  A    between atoms: _204  and  _205
REMARK   88  A    between atoms: _204  and  _207
REMARK   89  A    between atoms: _207  and  _208
REMARK   90  A    between atoms: _214  and  _216
REMARK   91  A    between atoms: _216  and  _217
REMARK   92  A    between atoms: _216  and  _219
REMARK   93  A    between atoms: _219  and  _220
REMARK   94  A    between atoms: _223  and  _225
REMARK   95  A    between atoms: _225  and  _226
REMARK   96  A    between atoms: _225  and  _228
REMARK   97  A    between atoms: _228  and  _229
REMARK   98  A    between atoms: _235  and  _237
REMARK   99  A    between atoms: _237  and  _238
REMARK  100  A    between atoms: _237  and  _240
REMARK  101  A    between atoms: _242  and  _244
REMARK  102  A    between atoms: _244  and  _245
REMARK  103  A    between atoms: _248  and  _250
REMARK  104  A    between atoms: _250  and  _251
REMARK  105  A    between atoms: _253  and  _255
REMARK  106  A    between atoms: _255  and  _256
REMARK  107  A    between atoms: _255  and  _258
REMARK  108  A    between atoms: _258  and  _259
REMARK  109  A    between atoms: _259  and  _260
REMARK  110  A    between atoms: _263  and  _265
REMARK  111  A    between atoms: _265  and  _266
REMARK  112  A    between atoms: _265  and  _268
REMARK  113  A    between atoms: _268  and  _269
REMARK  114  A    between atoms: _272  and  _274
REMARK  115  A    between atoms: _274  and  _275
REMARK  116  A    between atoms: _278  and  _280
REMARK  117  A    between atoms: _280  and  _281
REMARK  118  A    between atoms: _280  and  _283
REMARK  119  A    between atoms: _283  and  _284
REMARK  120  A    between atoms: _284  and  _407
REMARK  121  A    between atoms: _285  and  _287
REMARK  122  A    between atoms: _287  and  _288
REMARK  123  A    between atoms: _287  and  _290
REMARK  124  A    between atoms: _290  and  _291
REMARK  125  A    between atoms: _291  and  _292
REMARK  126  A    between atoms: _297  and  _299
REMARK  127  A    between atoms: _299  and  _300
REMARK  128  A    between atoms: _302  and  _304
REMARK  129  A    between atoms: _304  and  _305
REMARK  130  A    between atoms: _304  and  _307
REMARK  131  A    between atoms: _307  and  _308
REMARK  132  A    between atoms: _311  and  _313
REMARK  133  A    between atoms: _313  and  _314
REMARK  134  A    between atoms: _313  and  _316
REMARK  135  A    between atoms: _316  and  _317
REMARK  136  A    between atoms: _319  and  _321
REMARK  137  A    between atoms: _321  and  _322
REMARK  138  A    between atoms: _324  and  _326
REMARK  139  A    between atoms: _326  and  _327
REMARK  140  A    between atoms: _329  and  _331
REMARK  141  A    between atoms: _331  and  _332
REMARK  142  A    between atoms: _331  and  _334
REMARK  143  A    between atoms: _334  and  _335
REMARK  144  A    between atoms: _340  and  _342
REMARK  145  A    between atoms: _342  and  _343
REMARK  146  A    between atoms: _342  and  _345
REMARK  147  A    between atoms: _345  and  _346
REMARK  148  A    between atoms: _349  and  _351
REMARK  149  A    between atoms: _351  and  _352
REMARK  150  A    between atoms: _351  and  _354
REMARK  151  A    between atoms: _357  and  _359
REMARK  152  A    between atoms: _359  and  _360
REMARK  153  A    between atoms: _359  and  _362
REMARK  154  A    between atoms: _362  and  _363
REMARK  155  A    between atoms: _365  and  _367
REMARK  156  A    between atoms: _367  and  _368
REMARK  157  A    between atoms: _367  and  _370
REMARK  158  A    between atoms: _370  and  _371
REMARK  159  A    between atoms: _381  and  _383
REMARK  160  A    between atoms: _383  and  _384
REMARK  161  A    between atoms: _386  and  _388
REMARK  162  A    between atoms: _388  and  _389
REMARK  163  A    between atoms: _388  and  _391
REMARK  164  A    between atoms: _391  and  _392
REMARK  165  A    between atoms: _392  and  _393
REMARK  166  A    between atoms: _396  and  _398
REMARK  167  A    between atoms: _398  and  _399
REMARK  168  A    between atoms: _401  and  _403
REMARK  169  A    between atoms: _403  and  _404
REMARK  170  A    between atoms: _403  and  _406
REMARK  171  A    between atoms: _406  and  _407
REMARK  172  A    between atoms: _408  and  _410
REMARK  173  A    between atoms: _410  and  _411
REMARK  174  A    between atoms: _414  and  _416
REMARK  175  A    between atoms: _416  and  _417
REMARK  176  A    between atoms: _416  and  _419
REMARK  177  A    between atoms: _419  and  _420
REMARK  178  A    between atoms: _420  and  _421
REMARK  179  A    between atoms: _421  and  _422
REMARK  180  A    between atoms: _431  and  _433
REMARK  181  A    between atoms: _433  and  _434
REMARK  182  A    between atoms: _433  and  _436
REMARK  183  A    between atoms: _436  and  _437
REMARK  184  A    between atoms: _437  and  _438
REMARK  185  A    between atoms: _438  and  _439
REMARK  186  A    between atoms: _439  and  _440
REMARK  187  A    between atoms: _444  and  _446
REMARK  188  A    between atoms: _446  and  _447
REMARK  189  A    between atoms: _446  and  _449
REMARK  190  A    between atoms: _449  and  _450
REMARK  191  A    between atoms: _455  and  _456
REMARK  192  A    between atoms: _458  and  _460
REMARK  193  A    between atoms: _460  and  _461
REMARK  194  A    between atoms: _463  and  _465
REMARK  195  A    between atoms: _465  and  _466
REMARK  196  A    between atoms: _465  and  _468
REMARK  197  A    between atoms: _468  and  _469
REMARK  198  A    between atoms: _472  and  _474
REMARK  199  A    between atoms: _474  and  _475
REMARK  200  A    between atoms: _474  and  _477
REMARK  201  A    between atoms: _477  and  _478
REMARK  202  A    between atoms: _483  and  _484
REMARK  203  A    between atoms: _486  and  _488
REMARK  204  A    between atoms: _488  and  _489
REMARK  205  A    between atoms: _488  and  _491
REMARK  206  A    between atoms: _491  and  _492
REMARK                            x       y       z     vdW  Elec       q    Type
REMARK                         _______ _______ _______ _____ _____    ______ ____
ROOT
ATOM      1  C   ILE A   1       9.402  13.736  32.746  0.00  0.00    +0.202 C 
ATOM      2  O   ILE A   1       8.760  14.655  33.260  0.00  0.00    -0.277 OA
ATOM      3  N   VAL A   2       9.236  12.461  33.081  0.00  0.00    -0.301 N 
ATOM      4  H   VAL A   2       9.788  11.730  32.588  0.00  0.00    +0.150 HD
ENDROOT
BRANCH   1   5
ATOM      5  CA  ILE A   1      10.430  14.011  31.658  0.00  0.00    +0.013 C 
BRANCH   5   6
ATOM      6  N   ILE A   1       9.792  14.799  30.576  0.00  0.00    +0.387 N 
ATOM      7  H1  ILE A   1       9.443  15.699  30.964  0.00  0.00    -0.089 HD
ATOM      8  H2  ILE A   1       8.997  14.259  30.179  0.00  0.00    -0.089 HD
ATOM      9  H3  ILE A   1      10.491  14.990  29.830  0.00  0.00    -0.089 HD
ENDBRANCH   5   6
BRANCH   5  10
ATOM     10  CB  ILE A   1      11.639  14.771  32.278  0.00  0.00    -0.011 C 
ATOM     11  CG2 ILE A   1      12.168  14.020  33.506  0.00  0.00    -0.002 C 
BRANCH  10  12
ATOM     12  CG1 ILE A   1      12.750  14.943  31.234  0.00  0.00    -0.002 C 
ATOM     13  CD1 ILE A   1      13.393  13.647  30.768  0.00  0.00    -0.000 C 
ENDBRANCH  10  12
ENDBRANCH   5  10
ENDBRANCH   1   5
BRANCH   3  14
ATOM     14  CA  VAL A   2       8.301  12.063  34.121  0.00  0.00    +0.137 C 
BRANCH  14  15
ATOM     15  CB  VAL A   2       7.627  10.742  33.769  0.00  0.00    +0.026 C 
ATOM     16  CG2 VAL A   2       6.534  10.443  34.768  0.00  0.00    +0.002 C 
ATOM     17  CG1 VAL A   2       7.059  10.815  32.364  0.00  0.00    +0.002 C 
ENDBRANCH  14  15
BRANCH  14  18
ATOM     18  C   VAL A   2       9.110  11.888  35.390  0.00  0.00    +0.227 C 
ATOM     19  O   VAL A   2      10.059  11.111  35.417  0.00  0.00    -0.286 OA
ENDBRANCH  14  18
ENDBRANCH   3  14
TORSDOF 7
REMARK  Name = ../refined-set-2016/1nfu/1nfu_pocket.pdb
REMARK  206 active torsions:
REMARK  status: ('A' for Active; 'I' for Inactive)
REMARK    1  A    between atoms: _1  and  _5
REMARK    2  A    between atoms: _5  and  _6
REMARK    3  A    between atoms: _5  and  _8
REMARK    4  A    between atoms: _8  and  _9
REMARK    5  A    between atoms: _12  and  _14
REMARK    6  A    between atoms: _14  and  _15
REMARK    7  A    between atoms: _14  and  _17
REMARK    8  A    between atoms: _20  and  _22
REMARK    9  A    between atoms: _22  and  _23
REMARK   10  A    between atoms: _22  and  _25
REMARK   11  A    between atoms: _25  and  _26
REMARK   12  A    between atoms: _32  and  _34
REMARK   13  A    between atoms: _34  and  _35
REMARK   14  A    between atoms: _34  and  _37
REMARK   15  A    between atoms: _37  and  _38
REMARK   16  A    between atoms: _43  and  _45
REMARK   17  A    between atoms: _45  and  _46
REMARK   18  A    between atoms: _45  and  _48
REMARK   19  A    between atoms: _48  and  _49
REMARK   20  A    between atoms: _49  and  _50
REMARK   21  A    between atoms: _55  and  _57
REMARK   22  A    between atoms: _57  and  _58
REMARK   23  A    between atoms: _57  and  _60
REMARK   24  A    between atoms: _60  and  _61
REMARK   25  A    between atoms: _64  and  _66
REMARK   26  A    between atoms: _66  and  _67
REMARK   27  A    between atoms: _66  and  _69
REMARK   28  A    between atoms: _69  and  _70
REMARK   29  A    between atoms: _70  and  _71
REMARK   30  A    between atoms: _71  and  _72
REMARK   31  A    between atoms: _72  and  _73
REMARK   32  A    between atoms: _77  and  _79
REMARK   33  A    between atoms: _79  and  _80
REMARK   34  A    between atoms: _79  and  _82
REMARK   35  A    between atoms: _82  and  _83
REMARK   36  A    between atoms: _83  and  _84
REMARK   37  A    between atoms: _87  and  _89
REMARK   38  A    between atoms: _89  and  _90
REMARK   39  A    between atoms: _89  and  _92
REMARK   40  A    between atoms: _92  and  _93
REMARK   41  A    between atoms: _96  and  _98
REMARK   42  A    between atoms: _98  and  _99
REMARK   43  A    between atoms: _98  and  _101
REMARK   44  A    between atoms: _101  and  _102
REMARK   45  A    between atoms: _107  and  _108
REMARK   46  A    between atoms: _110  and  _112
REMARK   47  A    between atoms: _112  and  _113
REMARK   48  A    between atoms: _112  and  _115
REMARK   49  A    between atoms: _115  and  _116
REMARK   50  A    between atoms: _119  and  _121
REMARK   51  A    between atoms: _121  and  _122
REMARK   52  A    between atoms: _121  and  _124
REMARK   53  A    between atoms: _127  and  _129
REMARK   54  A    between atoms: _129  and  _130
REMARK   55  A    between atoms: _129  and  _132
REMARK   56  A    between atoms: _132  and  _133
REMARK   57  A    between atoms: _133  and  _134
REMARK   58  A    between atoms: _134  and  _135
REMARK   59  A    between atoms: _144  and  _146
REMARK   60  A    between atoms: _146  and  _147
REMARK   61  A    between atoms: _146  and  _149
REMARK   62  A    between atoms: _149  and  _150
REMARK   63  A    between atoms: _155  and  _157
REMARK   64  A    between atoms: _157  and  _158
REMARK   65  A    between atoms: _157  and  _160
REMARK   66  A    between atoms: _160  and  _161
REMARK   67  A    between atoms: _161  and  _162
REMARK   68  A    between atoms: _165  and  _167
REMARK   69  A    between atoms: _167  and  _168
REMARK   70  A    between atoms: _167  and  _170
REMARK   71  A    between atoms: _170  and  _171
REMARK   72  A    between atoms: _171  and  _172
REMARK   73  A    between atoms: _172  and  _173
REMARK   74  A    between atoms: _173  and  _174
REMARK   75  A    between atoms: _178  and  _180
REMARK   76  A    between atoms: _180  and  _181
REMARK   77  A    between atoms: _180  and  _183
REMARK   78  A    between atoms: _186  and  _188
REMARK   79  A    between atoms: _188  and  _189
REMARK   80  A    between atoms: _188  and  _191
REMARK   81  A    between atoms: _191  and  _192
REMARK   82  A    between atoms: _194  and  _196
REMARK   83  A    between atoms: _196  and  _197
REMARK   84  A    between atoms: _196  and  _199
REMARK   85  A    between atoms: _199  and  _200
REMARK   86  A    between atoms: _202  and  _204
REMARK   87  A    between atoms: _204  and  _205
REMARK   88  A    between atoms: _204  and  _207
REMARK   89  A    between atoms: _207  and  _208
REMARK   90  A    between atoms: _214  and  _216
REMARK   91  A    between atoms: _216  and  _217
REMARK   92  A    between atoms: _216  and  _219
REMARK   93  A    between atoms: _219  and  _220
REMARK   94  A    between atoms: _223  and  _225
REMARK   95  A    between atoms: _225  and  _226
REMARK   96  A    between atoms: _225  and  _228
REMARK   97  A    between atoms: _228  and  _229
REMARK   98  A    between atoms: _235  and  _237
REMARK   99  A    between atoms: _237  and  _238
REMARK  100  A    between atoms: _237  and  _240
REMARK  101  A    between atoms: _242  and  _244
REMARK  102  A    between atoms: _244  and  _245
REMARK  103  A    between atoms: _248  and  _250
REMARK  104  A    between atoms: _250  and  _251
REMARK  105  A    between atoms: _253  and  _255
REMARK  106  A    between atoms: _255  and  _256
REMARK  107  A    between atoms: _255  and  _258
REMARK  108  A    between atoms: _258  and  _259
REMARK  109  A    between atoms: _259  and  _260
REMARK  110  A    between atoms: _263  and  _265
REMARK  111  A    between atoms: _265  and  _266
REMARK  112  A    between atoms: _265  and  _268
REMARK  113  A    between atoms: _268  and  _269
REMARK  114  A    between atoms: _272  and  _274
REMARK  115  A    between atoms: _274  and  _275
REMARK  116  A    between atoms: _278  and  _280
REMARK  117  A    between atoms: _280  and  _281
REMARK  118  A    between atoms: _280  and  _283
REMARK  119  A    between atoms: _283  and  _284
REMARK  120  A    between atoms: _284  and  _407
REMARK  121  A    between atoms: _285  and  _287
REMARK  122  A    between atoms: _287  and  _288
REMARK  123  A    between atoms: _287  and  _290
REMARK  124  A    between atoms: _290  and  _291
REMARK  125  A    between atoms: _291  and  _292
REMARK  126  A    between atoms: _297  and  _299
REMARK  127  A    between atoms: _299  and  _300
REMARK  128  A    between atoms: _302  and  _304
REMARK  129  A    between atoms: _304  and  _305
REMARK  130  A    between atoms: _304  and  _307
REMARK  131  A    between atoms: _307  and  _308
REMARK  132  A    between atoms: _311  and  _313
REMARK  133  A    between atoms: _313  and  _314
REMARK  134  A    between atoms: _313  and  _316
REMARK  135  A    between atoms: _316  and  _317
REMARK  136  A    between atoms: _319  and  _321
REMARK  137  A    between atoms: _321  and  _322
REMARK  138  A    between atoms: _324  and  _326
REMARK  139  A    between atoms: _326  and  _327
REMARK  140  A    between atoms: _329  and  _331
REMARK  141  A    between atoms: _331  and  _332
REMARK  142  A    between atoms: _331  and  _334
REMARK  143  A    between atoms: _334  and  _335
REMARK  144  A    between atoms: _340  and  _342
REMARK  145  A    between atoms: _342  and  _343
REMARK  146  A    between atoms: _342  and  _345
REMARK  147  A    between atoms: _345  and  _346
REMARK  148  A    between atoms: _349  and  _351
REMARK  149  A    between atoms: _351  and  _352
REMARK  150  A    between atoms: _351  and  _354
REMARK  151  A    between atoms: _357  and  _359
REMARK  152  A    between atoms: _359  and  _360
REMARK  153  A    between atoms: _359  and  _362
REMARK  154  A    between atoms: _362  and  _363
REMARK  155  A    between atoms: _365  and  _367
REMARK  156  A    between atoms: _367  and  _368
REMARK  157  A    between atoms: _367  and  _370
REMARK  158  A    between atoms: _370  and  _371
REMARK  159  A    between atoms: _381  and  _383
REMARK  160  A    between atoms: _383  and  _384
REMARK  161  A    between atoms: _386  and  _388
REMARK  162  A    between atoms: _388  and  _389
REMARK  163  A    between atoms: _388  and  _391
REMARK  164  A    between atoms: _391  and  _392
REMARK  165  A    between atoms: _392  and  _393
REMARK  166  A    between atoms: _396  and  _398
REMARK  167  A    between atoms: _398  and  _399
REMARK  168  A    between atoms: _401  and  _403
REMARK  169  A    between atoms: _403  and  _404
REMARK  170  A    between atoms: _403  and  _406
REMARK  171  A    between atoms: _406  and  _407
REMARK  172  A    between atoms: _408  and  _410
REMARK  173  A    between atoms: _410  and  _411
REMARK  174  A    between atoms: _414  and  _416
REMARK  175  A    between atoms: _416  and  _417
REMARK  176  A    between atoms: _416  and  _419
REMARK  177  A    between atoms: _419  and  _420
REMARK  178  A    between atoms: _420  and  _421
REMARK  179  A    between atoms: _421  and  _422
REMARK  180  A    between atoms: _431  and  _433
REMARK  181  A    between atoms: _433  and  _434
REMARK  182  A    between atoms: _433  and  _436
REMARK  183  A    between atoms: _436  and  _437
REMARK  184  A    between atoms: _437  and  _438
REMARK  185  A    between atoms: _438  and  _439
REMARK  186  A    between atoms: _439  and  _440
REMARK  187  A    between atoms: _444  and  _446
REMARK  188  A    between atoms: _446  and  _447
REMARK  189  A    between atoms: _446  and  _449
REMARK  190  A    between atoms: _449  and  _450
REMARK  191  A    between atoms: _455  and  _456
REMARK  192  A    between atoms: _458  and  _460
REMARK  193  A    between atoms: _460  and  _461
REMARK  194  A    between atoms: _463  and  _465
REMARK  195  A    between atoms: _465  and  _466
REMARK  196  A    between atoms: _465  and  _468
REMARK  197  A    between atoms: _468  and  _469
REMARK  198  A    between atoms: _472  and  _474
REMARK  199  A    between atoms: _474  and  _475
REMARK  200  A    between atoms: _474  and  _477
REMARK  201  A    between atoms: _477  and  _478
REMARK  202  A    between atoms: _483  and  _484
REMARK  203  A    between atoms: _486  and  _488
REMARK  204  A    between atoms: _488  and  _489
REMARK  205  A    between atoms: _488  and  _491
REMARK  206  A    between atoms: _491  and  _492
REMARK                            x       y       z     vdW  Elec       q    Type
REMARK                         _______ _______ _______ _____ _____    ______ ____
ROOT
ATOM      1  CB  PHE A   1       8.055  19.352  18.437  0.00  0.00    +0.051 C 
ENDROOT
BRANCH   1   2
ATOM      2  CG  PHE A   1       9.076  19.527  17.361  0.00  0.00    -0.020 A 
ATOM      3  CD2 PHE A   1       9.803  18.439  16.895  0.00  0.00    -0.004 A 
ATOM      4  CE2 PHE A   1      10.740  18.588  15.875  0.00  0.00    -0.000 A 
ATOM      5  CZ  PHE A   1      10.953  19.843  15.313  0.00  0.00    -0.000 A 
ATOM      6  CE1 PHE A   1      10.230  20.938  15.776  0.00  0.00    -0.000 A 
ATOM      7  CD1 PHE A   1       9.297  20.776  16.796  0.00  0.00    -0.004 A 
ENDBRANCH   1   2
BRANCH   1   8
ATOM      8  CA  PHE A   1       8.638  19.336  19.854  0.00  0.00    +0.137 C 
BRANCH   8   9
ATOM      9  N   PHE A   1       9.206  20.631  20.182  0.00  0.00    -0.239 NA
ATOM     10  H   PHE A   1      10.087  20.948  19.728  0.00  0.00    +0.142 HD
ENDBRANCH   8   9
BRANCH   8  11
ATOM     11  C   PHE A   1       9.647  18.205  20.002  0.00  0.00    +0.224 C 
ATOM     12  O   PHE A   1       9.274  17.033  20.014  0.00  0.00    -0.287 OA
ENDBRANCH   8  11
ENDBRANCH   1   8
TORSDOF 4
REMARK  Name = ../refined-set-2016/1nfu/1nfu_pocket.pdb
REMARK  206 active torsions:
REMARK  status: ('A' for Active; 'I' for Inactive)
REMARK    1  A    between atoms: _1  and  _5
REMARK    2  A    between atoms: _5  and  _6
REMARK    3  A    between atoms: _5  and  _8
REMARK    4  A    between atoms: _8  and  _9
REMARK    5  A    between atoms: _12  and  _14
REMARK    6  A    between atoms: _14  and  _15
REMARK    7  A    between atoms: _14  and  _17
REMARK    8  A    between atoms: _20  and  _22
REMARK    9  A    between atoms: _22  and  _23
REMARK   10  A    between atoms: _22  and  _25
REMARK   11  A    between atoms: _25  and  _26
REMARK   12  A    between atoms: _32  and  _34
REMARK   13  A    between atoms: _34  and  _35
REMARK   14  A    between atoms: _34  and  _37
REMARK   15  A    between atoms: _37  and  _38
REMARK   16  A    between atoms: _43  and  _45
REMARK   17  A    between atoms: _45  and  _46
REMARK   18  A    between atoms: _45  and  _48
REMARK   19  A    between atoms: _48  and  _49
REMARK   20  A    between atoms: _49  and  _50
REMARK   21  A    between atoms: _55  and  _57
REMARK   22  A    between atoms: _57  and  _58
REMARK   23  A    between atoms: _57  and  _60
REMARK   24  A    between atoms: _60  and  _61
REMARK   25  A    between atoms: _64  and  _66
REMARK   26  A    between atoms: _66  and  _67
REMARK   27  A    between atoms: _66  and  _69
REMARK   28  A    between atoms: _69  and  _70
REMARK   29  A    between atoms: _70  and  _71
REMARK   30  A    between atoms: _71  and  _72
REMARK   31  A    between atoms: _72  and  _73
REMARK   32  A    between atoms: _77  and  _79
REMARK   33  A    between atoms: _79  and  _80
REMARK   34  A    between atoms: _79  and  _82
REMARK   35  A    between atoms: _82  and  _83
REMARK   36  A    between atoms: _83  and  _84
REMARK   37  A    between atoms: _87  and  _89
REMARK   38  A    between atoms: _89  and  _90
REMARK   39  A    between atoms: _89  and  _92
REMARK   40  A    between atoms: _92  and  _93
REMARK   41  A    between atoms: _96  and  _98
REMARK   42  A    between atoms: _98  and  _99
REMARK   43  A    between atoms: _98  and  _101
REMARK   44  A    between atoms: _101  and  _102
REMARK   45  A    between atoms: _107  and  _108
REMARK   46  A    between atoms: _110  and  _112
REMARK   47  A    between atoms: _112  and  _113
REMARK   48  A    between atoms: _112  and  _115
REMARK   49  A    between atoms: _115  and  _116
REMARK   50  A    between atoms: _119  and  _121
REMARK   51  A    between atoms: _121  and  _122
REMARK   52  A    between atoms: _121  and  _124
REMARK   53  A    between atoms: _127  and  _129
REMARK   54  A    between atoms: _129  and  _130
REMARK   55  A    between atoms: _129  and  _132
REMARK   56  A    between atoms: _132  and  _133
REMARK   57  A    between atoms: _133  and  _134
REMARK   58  A    between atoms: _134  and  _135
REMARK   59  A    between atoms: _144  and  _146
REMARK   60  A    between atoms: _146  and  _147
REMARK   61  A    between atoms: _146  and  _149
REMARK   62  A    between atoms: _149  and  _150
REMARK   63  A    between atoms: _155  and  _157
REMARK   64  A    between atoms: _157  and  _158
REMARK   65  A    between atoms: _157  and  _160
REMARK   66  A    between atoms: _160  and  _161
REMARK   67  A    between atoms: _161  and  _162
REMARK   68  A    between atoms: _165  and  _167
REMARK   69  A    between atoms: _167  and  _168
REMARK   70  A    between atoms: _167  and  _170
REMARK   71  A    between atoms: _170  and  _171
REMARK   72  A    between atoms: _171  and  _172
REMARK   73  A    between atoms: _172  and  _173
REMARK   74  A    between atoms: _173  and  _174
REMARK   75  A    between atoms: _178  and  _180
REMARK   76  A    between atoms: _180  and  _181
REMARK   77  A    between atoms: _180  and  _183
REMARK   78  A    between atoms: _186  and  _188
REMARK   79  A    between atoms: _188  and  _189
REMARK   80  A    between atoms: _188  and  _191
REMARK   81  A    between atoms: _191  and  _192
REMARK   82  A    between atoms: _194  and  _196
REMARK   83  A    between atoms: _196  and  _197
REMARK   84  A    between atoms: _196  and  _199
REMARK   85  A    between atoms: _199  and  _200
REMARK   86  A    between atoms: _202  and  _204
REMARK   87  A    between atoms: _204  and  _205
REMARK   88  A    between atoms: _204  and  _207
REMARK   89  A    between atoms: _207  and  _208
REMARK   90  A    between atoms: _214  and  _216
REMARK   91  A    between atoms: _216  and  _217
REMARK   92  A    between atoms: _216  and  _219
REMARK   93  A    between atoms: _219  and  _220
REMARK   94  A    between atoms: _223  and  _225
REMARK   95  A    between atoms: _225  and  _226
REMARK   96  A    between atoms: _225  and  _228
REMARK   97  A    between atoms: _228  and  _229
REMARK   98  A    between atoms: _235  and  _237
REMARK   99  A    between atoms: _237  and  _238
REMARK  100  A    between atoms: _237  and  _240
REMARK  101  A    between atoms: _242  and  _244
REMARK  102  A    between atoms: _244  and  _245
REMARK  103  A    between atoms: _248  and  _250
REMARK  104  A    between atoms: _250  and  _251
REMARK  105  A    between atoms: _253  and  _255
REMARK  106  A    between atoms: _255  and  _256
REMARK  107  A    between atoms: _255  and  _258
REMARK  108  A    between atoms: _258  and  _259
REMARK  109  A    between atoms: _259  and  _260
REMARK  110  A    between atoms: _263  and  _265
REMARK  111  A    between atoms: _265  and  _266
REMARK  112  A    between atoms: _265  and  _268
REMARK  113  A    between atoms: _268  and  _269
REMARK  114  A    between atoms: _272  and  _274
REMARK  115  A    between atoms: _274  and  _275
REMARK  116  A    between atoms: _278  and  _280
REMARK  117  A    between atoms: _280  and  _281
REMARK  118  A    between atoms: _280  and  _283
REMARK  119  A    between atoms: _283  and  _284
REMARK  120  A    between atoms: _284  and  _407
REMARK  121  A    between atoms: _285  and  _287
REMARK  122  A    between atoms: _287  and  _288
REMARK  123  A    between atoms: _287  and  _290
REMARK  124  A    between atoms: _290  and  _291
REMARK  125  A    between atoms: _291  and  _292
REMARK  126  A    between atoms: _297  and  _299
REMARK  127  A    between atoms: _299  and  _300
REMARK  128  A    between atoms: _302  and  _304
REMARK  129  A    between atoms: _304  and  _305
REMARK  130  A    between atoms: _304  and  _307
REMARK  131  A    between atoms: _307  and  _308
REMARK  132  A    between atoms: _311  and  _313
REMARK  133  A    between atoms: _313  and  _314
REMARK  134  A    between atoms: _313  and  _316
REMARK  135  A    between atoms: _316  and  _317
REMARK  136  A    between atoms: _319  and  _321
REMARK  137  A    between atoms: _321  and  _322
REMARK  138  A    between atoms: _324  and  _326
REMARK  139  A    between atoms: _326  and  _327
REMARK  140  A    between atoms: _329  and  _331
REMARK  141  A    between atoms: _331  and  _332
REMARK  142  A    between atoms: _331  and  _334
REMARK  143  A    between atoms: _334  and  _335
REMARK  144  A    between atoms: _340  and  _342
REMARK  145  A    between atoms: _342  and  _343
REMARK  146  A    between atoms: _342  and  _345
REMARK  147  A    between atoms: _345  and  _346
REMARK  148  A    between atoms: _349  and  _351
REMARK  149  A    between atoms: _351  and  _352
REMARK  150  A    between atoms: _351  and  _354
REMARK  151  A    between atoms: _357  and  _359
REMARK  152  A    between atoms: _359  and  _360
REMARK  153  A    between atoms: _359  and  _362
REMARK  154  A    between atoms: _362  and  _363
REMARK  155  A    between atoms: _365  and  _367
REMARK  156  A    between atoms: _367  and  _368
REMARK  157  A    between atoms: _367  and  _370
REMARK  158  A    between atoms: _370  and  _371
REMARK  159  A    between atoms: _381  and  _383
REMARK  160  A    between atoms: _383  and  _384
REMARK  161  A    between atoms: _386  and  _388
REMARK  162  A    between atoms: _388  and  _389
REMARK  163  A    between atoms: _388  and  _391
REMARK  164  A    between atoms: _391  and  _392
REMARK  165  A    between atoms: _392  and  _393
REMARK  166  A    between atoms: _396  and  _398
REMARK  167  A    between atoms: _398  and  _399
REMARK  168  A    between atoms: _401  and  _403
REMARK  169  A    between atoms: _403  and  _404
REMARK  170  A    between atoms: _403  and  _406
REMARK  171  A    between atoms: _406  and  _407
REMARK  172  A    between atoms: _408  and  _410
REMARK  173  A    between atoms: _410  and  _411
REMARK  174  A    between atoms: _414  and  _416
REMARK  175  A    between atoms: _416  and  _417
REMARK  176  A    between atoms: _416  and  _419
REMARK  177  A    between atoms: _419  and  _420
REMARK  178  A    between atoms: _420  and  _421
REMARK  179  A    between atoms: _421  and  _422
REMARK  180  A    between atoms: _431  and  _433
REMARK  181  A    between atoms: _433  and  _434
REMARK  182  A    between atoms: _433  and  _436
REMARK  183  A    between atoms: _436  and  _437
REMARK  184  A    between atoms: _437  and  _438
REMARK  185  A    between atoms: _438  and  _439
REMARK  186  A    between atoms: _439  and  _440
REMARK  187  A    between atoms: _444  and  _446
REMARK  188  A    between atoms: _446  and  _447
REMARK  189  A    between atoms: _446  and  _449
REMARK  190  A    between atoms: _449  and  _450
REMARK  191  A    between atoms: _455  and  _456
REMARK  192  A    between atoms: _458  and  _460
REMARK  193  A    between atoms: _460  and  _461
REMARK  194  A    between atoms: _463  and  _465
REMARK  195  A    between atoms: _465  and  _466
REMARK  196  A    between atoms: _465  and  _468
REMARK  197  A    between atoms: _468  and  _469
REMARK  198  A    between atoms: _472  and  _474
REMARK  199  A    between atoms: _474  and  _475
REMARK  200  A    between atoms: _474  and  _477
REMARK  201  A    between atoms: _477  and  _478
REMARK  202  A    between atoms: _483  and  _484
REMARK  203  A    between atoms: _486  and  _488
REMARK  204  A    between atoms: _488  and  _489
REMARK  205  A    between atoms: _488  and  _491
REMARK  206  A    between atoms: _491  and  _492
REMARK                            x       y       z     vdW  Elec       q    Type
REMARK                         _______ _______ _______ _____ _____    ______ ____
ROOT
ATOM      1  CB  HIS A   1      12.065   9.464  14.704  0.00  0.00    +0.072 C 
ENDROOT
BRANCH   1   2
ATOM      2  CG  HIS A   1      11.764   9.877  16.116  0.00  0.00    +0.082 A 
ATOM      3  ND1 HIS A   1      12.624   9.621  17.166  0.00  0.00    -0.227 NA
ATOM      4  CE1 HIS A   1      12.074  10.031  18.295  0.00  0.00    +0.199 A 
ATOM      5  NE2 HIS A   1      10.889  10.546  18.019  0.00  0.00    -0.221 NA
ATOM      6  CD2 HIS A   1      10.672  10.463  16.663  0.00  0.00    +0.115 A 
ENDBRANCH   1   2
BRANCH   1   7
ATOM      7  CA  HIS A   1      12.606  10.593  13.792  0.00  0.00    +0.139 C 
BRANCH   7   8
ATOM      8  N   HIS A   1      14.057  10.664  13.864  0.00  0.00    -0.239 NA
ATOM      9  H   HIS A   1      14.560  10.239  14.669  0.00  0.00    +0.142 HD
ENDBRANCH   7   8
BRANCH   7  10
ATOM     10  C   HIS A   1      11.968  11.936  14.108  0.00  0.00    +0.224 C 
ATOM     11  O   HIS A   1      10.787  12.152  13.835  0.00  0.00    -0.287 OA
ENDBRANCH   7  10
ENDBRANCH   1   7
TORSDOF 4
REMARK  Name = ../refined-set-2016/1nfu/1nfu_pocket.pdb
REMARK  206 active torsions:
REMARK  status: ('A' for Active; 'I' for Inactive)
REMARK    1  A    between atoms: _1  and  _5
REMARK    2  A    between atoms: _5  and  _6
REMARK    3  A    between atoms: _5  and  _8
REMARK    4  A    between atoms: _8  and  _9
REMARK    5  A    between atoms: _12  and  _14
REMARK    6  A    between atoms: _14  and  _15
REMARK    7  A    between atoms: _14  and  _17
REMARK    8  A    between atoms: _20  and  _22
REMARK    9  A    between atoms: _22  and  _23
REMARK   10  A    between atoms: _22  and  _25
REMARK   11  A    between atoms: _25  and  _26
REMARK   12  A    between atoms: _32  and  _34
REMARK   13  A    between atoms: _34  and  _35
REMARK   14  A    between atoms: _34  and  _37
REMARK   15  A    between atoms: _37  and  _38
REMARK   16  A    between atoms: _43  and  _45
REMARK   17  A    between atoms: _45  and  _46
REMARK   18  A    between atoms: _45  and  _48
REMARK   19  A    between atoms: _48  and  _49
REMARK   20  A    between atoms: _49  and  _50
REMARK   21  A    between atoms: _55  and  _57
REMARK   22  A    between atoms: _57  and  _58
REMARK   23  A    between atoms: _57  and  _60
REMARK   24  A    between atoms: _60  and  _61
REMARK   25  A    between atoms: _64  and  _66
REMARK   26  A    between atoms: _66  and  _67
REMARK   27  A    between atoms: _66  and  _69
REMARK   28  A    between atoms: _69  and  _70
REMARK   29  A    between atoms: _70  and  _71
REMARK   30  A    between atoms: _71  and  _72
REMARK   31  A    between atoms: _72  and  _73
REMARK   32  A    between atoms: _77  and  _79
REMARK   33  A    between atoms: _79  and  _80
REMARK   34  A    between atoms: _79  and  _82
REMARK   35  A    between atoms: _82  and  _83
REMARK   36  A    between atoms: _83  and  _84
REMARK   37  A    between atoms: _87  and  _89
REMARK   38  A    between atoms: _89  and  _90
REMARK   39  A    between atoms: _89  and  _92
REMARK   40  A    between atoms: _92  and  _93
REMARK   41  A    between atoms: _96  and  _98
REMARK   42  A    between atoms: _98  and  _99
REMARK   43  A    between atoms: _98  and  _101
REMARK   44  A    between atoms: _101  and  _102
REMARK   45  A    between atoms: _107  and  _108
REMARK   46  A    between atoms: _110  and  _112
REMARK   47  A    between atoms: _112  and  _113
REMARK   48  A    between atoms: _112  and  _115
REMARK   49  A    between atoms: _115  and  _116
REMARK   50  A    between atoms: _119  and  _121
REMARK   51  A    between atoms: _121  and  _122
REMARK   52  A    between atoms: _121  and  _124
REMARK   53  A    between atoms: _127  and  _129
REMARK   54  A    between atoms: _129  and  _130
REMARK   55  A    between atoms: _129  and  _132
REMARK   56  A    between atoms: _132  and  _133
REMARK   57  A    between atoms: _133  and  _134
REMARK   58  A    between atoms: _134  and  _135
REMARK   59  A    between atoms: _144  and  _146
REMARK   60  A    between atoms: _146  and  _147
REMARK   61  A    between atoms: _146  and  _149
REMARK   62  A    between atoms: _149  and  _150
REMARK   63  A    between atoms: _155  and  _157
REMARK   64  A    between atoms: _157  and  _158
REMARK   65  A    between atoms: _157  and  _160
REMARK   66  A    between atoms: _160  and  _161
REMARK   67  A    between atoms: _161  and  _162
REMARK   68  A    between atoms: _165  and  _167
REMARK   69  A    between atoms: _167  and  _168
REMARK   70  A    between atoms: _167  and  _170
REMARK   71  A    between atoms: _170  and  _171
REMARK   72  A    between atoms: _171  and  _172
REMARK   73  A    between atoms: _172  and  _173
REMARK   74  A    between atoms: _173  and  _174
REMARK   75  A    between atoms: _178  and  _180
REMARK   76  A    between atoms: _180  and  _181
REMARK   77  A    between atoms: _180  and  _183
REMARK   78  A    between atoms: _186  and  _188
REMARK   79  A    between atoms: _188  and  _189
REMARK   80  A    between atoms: _188  and  _191
REMARK   81  A    between atoms: _191  and  _192
REMARK   82  A    between atoms: _194  and  _196
REMARK   83  A    between atoms: _196  and  _197
REMARK   84  A    between atoms: _196  and  _199
REMARK   85  A    between atoms: _199  and  _200
REMARK   86  A    between atoms: _202  and  _204
REMARK   87  A    between atoms: _204  and  _205
REMARK   88  A    between atoms: _204  and  _207
REMARK   89  A    between atoms: _207  and  _208
REMARK   90  A    between atoms: _214  and  _216
REMARK   91  A    between atoms: _216  and  _217
REMARK   92  A    between atoms: _216  and  _219
REMARK   93  A    between atoms: _219  and  _220
REMARK   94  A    between atoms: _223  and  _225
REMARK   95  A    between atoms: _225  and  _226
REMARK   96  A    between atoms: _225  and  _228
REMARK   97  A    between atoms: _228  and  _229
REMARK   98  A    between atoms: _235  and  _237
REMARK   99  A    between atoms: _237  and  _238
REMARK  100  A    between atoms: _237  and  _240
REMARK  101  A    between atoms: _242  and  _244
REMARK  102  A    between atoms: _244  and  _245
REMARK  103  A    between atoms: _248  and  _250
REMARK  104  A    between atoms: _250  and  _251
REMARK  105  A    between atoms: _253  and  _255
REMARK  106  A    between atoms: _255  and  _256
REMARK  107  A    between atoms: _255  and  _258
REMARK  108  A    between atoms: _258  and  _259
REMARK  109  A    between atoms: _259  and  _260
REMARK  110  A    between atoms: _263  and  _265
REMARK  111  A    between atoms: _265  and  _266
REMARK  112  A    between atoms: _265  and  _268
REMARK  113  A    between atoms: _268  and  _269
REMARK  114  A    between atoms: _272  and  _274
REMARK  115  A    between atoms: _274  and  _275
REMARK  116  A    between atoms: _278  and  _280
REMARK  117  A    between atoms: _280  and  _281
REMARK  118  A    between atoms: _280  and  _283
REMARK  119  A    between atoms: _283  and  _284
REMARK  120  A    between atoms: _284  and  _407
REMARK  121  A    between atoms: _285  and  _287
REMARK  122  A    between atoms: _287  and  _288
REMARK  123  A    between atoms: _287  and  _290
REMARK  124  A    between atoms: _290  and  _291
REMARK  125  A    between atoms: _291  and  _292
REMARK  126  A    between atoms: _297  and  _299
REMARK  127  A    between atoms: _299  and  _300
REMARK  128  A    between atoms: _302  and  _304
REMARK  129  A    between atoms: _304  and  _305
REMARK  130  A    between atoms: _304  and  _307
REMARK  131  A    between atoms: _307  and  _308
REMARK  132  A    between atoms: _311  and  _313
REMARK  133  A    between atoms: _313  and  _314
REMARK  134  A    between atoms: _313  and  _316
REMARK  135  A    between atoms: _316  and  _317
REMARK  136  A    between atoms: _319  and  _321
REMARK  137  A    between atoms: _321  and  _322
REMARK  138  A    between atoms: _324  and  _326
REMARK  139  A    between atoms: _326  and  _327
REMARK  140  A    between atoms: _329  and  _331
REMARK  141  A    between atoms: _331  and  _332
REMARK  142  A    between atoms: _331  and  _334
REMARK  143  A    between atoms: _334  and  _335
REMARK  144  A    between atoms: _340  and  _342
REMARK  145  A    between atoms: _342  and  _343
REMARK  146  A    between atoms: _342  and  _345
REMARK  147  A    between atoms: _345  and  _346
REMARK  148  A    between atoms: _349  and  _351
REMARK  149  A    between atoms: _351  and  _352
REMARK  150  A    between atoms: _351  and  _354
REMARK  151  A    between atoms: _357  and  _359
REMARK  152  A    between atoms: _359  and  _360
REMARK  153  A    between atoms: _359  and  _362
REMARK  154  A    between atoms: _362  and  _363
REMARK  155  A    between atoms: _365  and  _367
REMARK  156  A    between atoms: _367  and  _368
REMARK  157  A    between atoms: _367  and  _370
REMARK  158  A    between atoms: _370  and  _371
REMARK  159  A    between atoms: _381  and  _383
REMARK  160  A    between atoms: _383  and  _384
REMARK  161  A    between atoms: _386  and  _388
REMARK  162  A    between atoms: _388  and  _389
REMARK  163  A    between atoms: _388  and  _391
REMARK  164  A    between atoms: _391  and  _392
REMARK  165  A    between atoms: _392  and  _393
REMARK  166  A    between atoms: _396  and  _398
REMARK  167  A    between atoms: _398  and  _399
REMARK  168  A    between atoms: _401  and  _403
REMARK  169  A    between atoms: _403  and  _404
REMARK  170  A    between atoms: _403  and  _406
REMARK  171  A    between atoms: _406  and  _407
REMARK  172  A    between atoms: _408  and  _410
REMARK  173  A    between atoms: _410  and  _411
REMARK  174  A    between atoms: _414  and  _416
REMARK  175  A    between atoms: _416  and  _417
REMARK  176  A    between atoms: _416  and  _419
REMARK  177  A    between atoms: _419  and  _420
REMARK  178  A    between atoms: _420  and  _421
REMARK  179  A    between atoms: _421  and  _422
REMARK  180  A    between atoms: _431  and  _433
REMARK  181  A    between atoms: _433  and  _434
REMARK  182  A    between atoms: _433  and  _436
REMARK  183  A    between atoms: _436  and  _437
REMARK  184  A    between atoms: _437  and  _438
REMARK  185  A    between atoms: _438  and  _439
REMARK  186  A    between atoms: _439  and  _440
REMARK  187  A    between atoms: _444  and  _446
REMARK  188  A    between atoms: _446  and  _447
REMARK  189  A    between atoms: _446  and  _449
REMARK  190  A    between atoms: _449  and  _450
REMARK  191  A    between atoms: _455  and  _456
REMARK  192  A    between atoms: _458  and  _460
REMARK  193  A    between atoms: _460  and  _461
REMARK  194  A    between atoms: _463  and  _465
REMARK  195  A    between atoms: _465  and  _466
REMARK  196  A    between atoms: _465  and  _468
REMARK  197  A    between atoms: _468  and  _469
REMARK  198  A    between atoms: _472  and  _474
REMARK  199  A    between atoms: _474  and  _475
REMARK  200  A    between atoms: _474  and  _477
REMARK  201  A    between atoms: _477  and  _478
REMARK  202  A    between atoms: _483  and  _484
REMARK  203  A    between atoms: _486  and  _488
REMARK  204  A    between atoms: _488  and  _489
REMARK  205  A    between atoms: _488  and  _491
REMARK  206  A    between atoms: _491  and  _492
REMARK                            x       y       z     vdW  Elec       q    Type
REMARK                         _______ _______ _______ _____ _____    ______ ____
ROOT
ATOM      1  CB  GLN A   1       7.961  15.862  15.013  0.00  0.00    +0.035 C 
ENDROOT
BRANCH   1   2
ATOM      2  CA  GLN A   1       7.571  15.896  13.538  0.00  0.00    +0.134 C 
BRANCH   2   3
ATOM      3  N   GLN A   1       8.607  15.249  12.746  0.00  0.00    -0.239 NA
ATOM      4  H   GLN A   1       9.576  15.202  13.120  0.00  0.00    +0.142 HD
ENDBRANCH   2   3
BRANCH   2   5
ATOM      5  C   GLN A   1       7.262  17.334  13.138  0.00  0.00    +0.224 C 
ATOM      6  O   GLN A   1       6.342  17.941  13.686  0.00  0.00    -0.287 OA
ENDBRANCH   2   5
ENDBRANCH   1   2
BRANCH   1   7
ATOM      7  CG  GLN A   1       6.831  15.502  15.947  0.00  0.00    +0.087 C 
BRANCH   7   8
ATOM      8  CD  GLN A   1       7.305  14.651  17.097  0.00  0.00    +0.219 C 
ATOM      9  OE1 GLN A   1       7.001  14.930  18.258  0.00  0.00    -0.275 OA
ATOM     10  NE2 GLN A   1       8.060  13.605  16.785  0.00  0.00    -0.329 N 
ATOM     11 HE21 GLN A   1       8.421  12.982  17.535  0.00  0.00    +0.145 HD
ATOM     12 HE22 GLN A   1       8.291  13.409  15.790  0.00  0.00    +0.145 HD
ENDBRANCH   7   8
ENDBRANCH   1   7
TORSDOF 5
REMARK  Name = ../refined-set-2016/1nfu/1nfu_pocket.pdb
REMARK  206 active torsions:
REMARK  status: ('A' for Active; 'I' for Inactive)
REMARK    1  A    between atoms: _1  and  _5
REMARK    2  A    between atoms: _5  and  _6
REMARK    3  A    between atoms: _5  and  _8
REMARK    4  A    between atoms: _8  and  _9
REMARK    5  A    between atoms: _12  and  _14
REMARK    6  A    between atoms: _14  and  _15
REMARK    7  A    between atoms: _14  and  _17
REMARK    8  A    between atoms: _20  and  _22
REMARK    9  A    between atoms: _22  and  _23
REMARK   10  A    between atoms: _22  and  _25
REMARK   11  A    between atoms: _25  and  _26
REMARK   12  A    between atoms: _32  and  _34
REMARK   13  A    between atoms: _34  and  _35
REMARK   14  A    between atoms: _34  and  _37
REMARK   15  A    between atoms: _37  and  _38
REMARK   16  A    between atoms: _43  and  _45
REMARK   17  A    between atoms: _45  and  _46
REMARK   18  A    between atoms: _45  and  _48
REMARK   19  A    between atoms: _48  and  _49
REMARK   20  A    between atoms: _49  and  _50
REMARK   21  A    between atoms: _55  and  _57
REMARK   22  A    between atoms: _57  and  _58
REMARK   23  A    between atoms: _57  and  _60
REMARK   24  A    between atoms: _60  and  _61
REMARK   25  A    between atoms: _64  and  _66
REMARK   26  A    between atoms: _66  and  _67
REMARK   27  A    between atoms: _66  and  _69
REMARK   28  A    between atoms: _69  and  _70
REMARK   29  A    between atoms: _70  and  _71
REMARK   30  A    between atoms: _71  and  _72
REMARK   31  A    between atoms: _72  and  _73
REMARK   32  A    between atoms: _77  and  _79
REMARK   33  A    between atoms: _79  and  _80
REMARK   34  A    between atoms: _79  and  _82
REMARK   35  A    between atoms: _82  and  _83
REMARK   36  A    between atoms: _83  and  _84
REMARK   37  A    between atoms: _87  and  _89
REMARK   38  A    between atoms: _89  and  _90
REMARK   39  A    between atoms: _89  and  _92
REMARK   40  A    between atoms: _92  and  _93
REMARK   41  A    between atoms: _96  and  _98
REMARK   42  A    between atoms: _98  and  _99
REMARK   43  A    between atoms: _98  and  _101
REMARK   44  A    between atoms: _101  and  _102
REMARK   45  A    between atoms: _107  and  _108
REMARK   46  A    between atoms: _110  and  _112
REMARK   47  A    between atoms: _112  and  _113
REMARK   48  A    between atoms: _112  and  _115
REMARK   49  A    between atoms: _115  and  _116
REMARK   50  A    between atoms: _119  and  _121
REMARK   51  A    between atoms: _121  and  _122
REMARK   52  A    between atoms: _121  and  _124
REMARK   53  A    between atoms: _127  and  _129
REMARK   54  A    between atoms: _129  and  _130
REMARK   55  A    between atoms: _129  and  _132
REMARK   56  A    between atoms: _132  and  _133
REMARK   57  A    between atoms: _133  and  _134
REMARK   58  A    between atoms: _134  and  _135
REMARK   59  A    between atoms: _144  and  _146
REMARK   60  A    between atoms: _146  and  _147
REMARK   61  A    between atoms: _146  and  _149
REMARK   62  A    between atoms: _149  and  _150
REMARK   63  A    between atoms: _155  and  _157
REMARK   64  A    between atoms: _157  and  _158
REMARK   65  A    between atoms: _157  and  _160
REMARK   66  A    between atoms: _160  and  _161
REMARK   67  A    between atoms: _161  and  _162
REMARK   68  A    between atoms: _165  and  _167
REMARK   69  A    between atoms: _167  and  _168
REMARK   70  A    between atoms: _167  and  _170
REMARK   71  A    between atoms: _170  and  _171
REMARK   72  A    between atoms: _171  and  _172
REMARK   73  A    between atoms: _172  and  _173
REMARK   74  A    between atoms: _173  and  _174
REMARK   75  A    between atoms: _178  and  _180
REMARK   76  A    between atoms: _180  and  _181
REMARK   77  A    between atoms: _180  and  _183
REMARK   78  A    between atoms: _186  and  _188
REMARK   79  A    between atoms: _188  and  _189
REMARK   80  A    between atoms: _188  and  _191
REMARK   81  A    between atoms: _191  and  _192
REMARK   82  A    between atoms: _194  and  _196
REMARK   83  A    between atoms: _196  and  _197
REMARK   84  A    between atoms: _196  and  _199
REMARK   85  A    between atoms: _199  and  _200
REMARK   86  A    between atoms: _202  and  _204
REMARK   87  A    between atoms: _204  and  _205
REMARK   88  A    between atoms: _204  and  _207
REMARK   89  A    between atoms: _207  and  _208
REMARK   90  A    between atoms: _214  and  _216
REMARK   91  A    between atoms: _216  and  _217
REMARK   92  A    between atoms: _216  and  _219
REMARK   93  A    between atoms: _219  and  _220
REMARK   94  A    between atoms: _223  and  _225
REMARK   95  A    between atoms: _225  and  _226
REMARK   96  A    between atoms: _225  and  _228
REMARK   97  A    between atoms: _228  and  _229
REMARK   98  A    between atoms: _235  and  _237
REMARK   99  A    between atoms: _237  and  _238
REMARK  100  A    between atoms: _237  and  _240
REMARK  101  A    between atoms: _242  and  _244
REMARK  102  A    between atoms: _244  and  _245
REMARK  103  A    between atoms: _248  and  _250
REMARK  104  A    between atoms: _250  and  _251
REMARK  105  A    between atoms: _253  and  _255
REMARK  106  A    between atoms: _255  and  _256
REMARK  107  A    between atoms: _255  and  _258
REMARK  108  A    between atoms: _258  and  _259
REMARK  109  A    between atoms: _259  and  _260
REMARK  110  A    between atoms: _263  and  _265
REMARK  111  A    between atoms: _265  and  _266
REMARK  112  A    between atoms: _265  and  _268
REMARK  113  A    between atoms: _268  and  _269
REMARK  114  A    between atoms: _272  and  _274
REMARK  115  A    between atoms: _274  and  _275
REMARK  116  A    between atoms: _278  and  _280
REMARK  117  A    between atoms: _280  and  _281
REMARK  118  A    between atoms: _280  and  _283
REMARK  119  A    between atoms: _283  and  _284
REMARK  120  A    between atoms: _284  and  _407
REMARK  121  A    between atoms: _285  and  _287
REMARK  122  A    between atoms: _287  and  _288
REMARK  123  A    between atoms: _287  and  _290
REMARK  124  A    between atoms: _290  and  _291
REMARK  125  A    between atoms: _291  and  _292
REMARK  126  A    between atoms: _297  and  _299
REMARK  127  A    between atoms: _299  and  _300
REMARK  128  A    between atoms: _302  and  _304
REMARK  129  A    between atoms: _304  and  _305
REMARK  130  A    between atoms: _304  and  _307
REMARK  131  A    between atoms: _307  and  _308
REMARK  132  A    between atoms: _311  and  _313
REMARK  133  A    between atoms: _313  and  _314
REMARK  134  A    between atoms: _313  and  _316
REMARK  135  A    between atoms: _316  and  _317
REMARK  136  A    between atoms: _319  and  _321
REMARK  137  A    between atoms: _321  and  _322
REMARK  138  A    between atoms: _324  and  _326
REMARK  139  A    between atoms: _326  and  _327
REMARK  140  A    between atoms: _329  and  _331
REMARK  141  A    between atoms: _331  and  _332
REMARK  142  A    between atoms: _331  and  _334
REMARK  143  A    between atoms: _334  and  _335
REMARK  144  A    between atoms: _340  and  _342
REMARK  145  A    between atoms: _342  and  _343
REMARK  146  A    between atoms: _342  and  _345
REMARK  147  A    between atoms: _345  and  _346
REMARK  148  A    between atoms: _349  and  _351
REMARK  149  A    between atoms: _351  and  _352
REMARK  150  A    between atoms: _351  and  _354
REMARK  151  A    between atoms: _357  and  _359
REMARK  152  A    between atoms: _359  and  _360
REMARK  153  A    between atoms: _359  and  _362
REMARK  154  A    between atoms: _362  and  _363
REMARK  155  A    between atoms: _365  and  _367
REMARK  156  A    between atoms: _367  and  _368
REMARK  157  A    between atoms: _367  and  _370
REMARK  158  A    between atoms: _370  and  _371
REMARK  159  A    between atoms: _381  and  _383
REMARK  160  A    between atoms: _383  and  _384
REMARK  161  A    between atoms: _386  and  _388
REMARK  162  A    between atoms: _388  and  _389
REMARK  163  A    between atoms: _388  and  _391
REMARK  164  A    between atoms: _391  and  _392
REMARK  165  A    between atoms: _392  and  _393
REMARK  166  A    between atoms: _396  and  _398
REMARK  167  A    between atoms: _398  and  _399
REMARK  168  A    between atoms: _401  and  _403
REMARK  169  A    between atoms: _403  and  _404
REMARK  170  A    between atoms: _403  and  _406
REMARK  171  A    between atoms: _406  and  _407
REMARK  172  A    between atoms: _408  and  _410
REMARK  173  A    between atoms: _410  and  _411
REMARK  174  A    between atoms: _414  and  _416
REMARK  175  A    between atoms: _416  and  _417
REMARK  176  A    between atoms: _416  and  _419
REMARK  177  A    between atoms: _419  and  _420
REMARK  178  A    between atoms: _420  and  _421
REMARK  179  A    between atoms: _421  and  _422
REMARK  180  A    between atoms: _431  and  _433
REMARK  181  A    between atoms: _433  and  _434
REMARK  182  A    between atoms: _433  and  _436
REMARK  183  A    between atoms: _436  and  _437
REMARK  184  A    between atoms: _437  and  _438
REMARK  185  A    between atoms: _438  and  _439
REMARK  186  A    between atoms: _439  and  _440
REMARK  187  A    between atoms: _444  and  _446
REMARK  188  A    between atoms: _446  and  _447
REMARK  189  A    between atoms: _446  and  _449
REMARK  190  A    between atoms: _449  and  _450
REMARK  191  A    between atoms: _455  and  _456
REMARK  192  A    between atoms: _458  and  _460
REMARK  193  A    between atoms: _460  and  _461
REMARK  194  A    between atoms: _463  and  _465
REMARK  195  A    between atoms: _465  and  _466
REMARK  196  A    between atoms: _465  and  _468
REMARK  197  A    between atoms: _468  and  _469
REMARK  198  A    between atoms: _472  and  _474
REMARK  199  A    between atoms: _474  and  _475
REMARK  200  A    between atoms: _474  and  _477
REMARK  201  A    between atoms: _477  and  _478
REMARK  202  A    between atoms: _483  and  _484
REMARK  203  A    between atoms: _486  and  _488
REMARK  204  A    between atoms: _488  and  _489
REMARK  205  A    between atoms: _488  and  _491
REMARK  206  A    between atoms: _491  and  _492
REMARK                            x       y       z     vdW  Elec       q    Type
REMARK                         _______ _______ _______ _____ _____    ______ ____
ROOT
ATOM      1  C   GLU A   3       9.943   0.547  12.504  0.00  0.00    +0.241 C 
ATOM      2  O   GLU A   3       9.161   0.142  13.358  0.00  0.00    -0.273 OA
ATOM      3  N   THR A   4      11.259   0.547  12.684  0.00  0.00    -0.295 N 
ATOM      4  H   THR A   4      11.878   0.928  11.940  0.00  0.00    +0.150 HD
ENDROOT
BRANCH   3   5
ATOM      5  CA  THR A   4      11.848   0.021  13.910  0.00  0.00    +0.176 C 
BRANCH   5   6
ATOM      6  C   THR A   4      12.577   1.055  14.771  0.00  0.00    +0.243 C 
ATOM      7  O   THR A   4      13.020   0.742  15.881  0.00  0.00    -0.273 OA
ATOM      8  N   TYR A   5      12.701   2.279  14.260  0.00  0.00    -0.297 N 
ATOM      9  H   TYR A   5      12.291   2.479  13.325  0.00  0.00    +0.150 HD
BRANCH   8  10
ATOM     10  CA  TYR A   5      13.395   3.349  14.972  0.00  0.00    +0.153 C 
BRANCH  10  11
ATOM     11  C   TYR A   5      14.871   2.994  15.090  0.00  0.00    +0.241 C 
ATOM     12  O   TYR A   5      15.549   3.441  16.010  0.00  0.00    -0.273 OA
ATOM     13  N   ASP A   6      15.360   2.176  14.165  0.00  0.00    -0.298 N 
ATOM     14  H   ASP A   6      14.730   1.820  13.418  0.00  0.00    +0.150 HD
BRANCH  13  15
ATOM     15  CA  ASP A   6      16.759   1.765  14.172  0.00  0.00    +0.148 C 
BRANCH  15  16
ATOM     16  C   ASP A   6      17.553   2.876  13.490  0.00  0.00    +0.227 C 
ATOM     17  O   ASP A   6      17.048   3.525  12.578  0.00  0.00    -0.286 OA
ENDBRANCH  15  16
BRANCH  15  18
ATOM     18  CB  ASP A   6      16.929   0.439  13.413  0.00  0.00    +0.142 C 
BRANCH  18  19
ATOM     19  CG  ASP A   6      18.302  -0.188  13.615  0.00  0.00    +0.367 C 
ATOM     20  OD2 ASP A   6      18.948   0.088  14.650  0.00  0.00    -0.246 OA
ATOM     21  OD1 ASP A   6      18.740  -0.960  12.735  0.00  0.00    -0.246 OA
ENDBRANCH  18  19
ENDBRANCH  15  18
ENDBRANCH  13  15
ENDBRANCH  10  11
BRANCH  10  22
ATOM     22  CB  TYR A   5      12.812   3.533  16.374  0.00  0.00    +0.055 C 
BRANCH  22  23
ATOM     23  CG  TYR A   5      11.725   4.584  16.502  0.00  0.00    -0.020 A 
ATOM     24  CD2 TYR A   5      10.937   4.645  17.650  0.00  0.00    -0.001 A 
ATOM     25  CE2 TYR A   5       9.951   5.614  17.810  0.00  0.00    +0.036 A 
ATOM     26  CZ  TYR A   5       9.736   6.541  16.814  0.00  0.00    +0.134 A 
ATOM     27  CE1 TYR A   5      10.502   6.509  15.650  0.00  0.00    +0.036 A 
ATOM     28  CD1 TYR A   5      11.495   5.528  15.500  0.00  0.00    -0.001 A 
BRANCH  26  29
ATOM     29  OH  TYR A   5       8.753   7.491  16.996  0.00  0.00    -0.506 OA
ATOM     30  HH  TYR A   5       8.716   8.082  16.203  0.00  0.00    +0.292 HD
ENDBRANCH  26  29
ENDBRANCH  22  23
ENDBRANCH  10  22
ENDBRANCH   8  10
ENDBRANCH   5   6
BRANCH   5  31
ATOM     31  CB  THR A   4      12.833  -1.116  13.583  0.00  0.00    +0.137 C 
ATOM     32  CG2 THR A   4      12.097  -2.296  12.953  0.00  0.00    +0.034 C 
BRANCH  31  33
ATOM     33  OG1 THR A   4      13.823  -0.639  12.663  0.00  0.00    -0.382 OA
ATOM     34  HG1 THR A   4      13.380  -0.335  11.831  0.00  0.00    +0.210 HD
ENDBRANCH  31  33
ENDBRANCH   5  31
ENDBRANCH   3   5
BRANCH   1  35
ATOM     35  CA  GLU A   3       9.421   1.084  11.171  0.00  0.00    +0.149 C 
BRANCH  35  38
ATOM     36  C   LYS A   2      10.042   3.431  11.338  0.00  0.00    +0.241 C 
ATOM     37  O   LYS A   2       9.432   3.562  12.396  0.00  0.00    -0.273 OA
ATOM     38  N   GLU A   3      10.106   2.278  10.683  0.00  0.00    -0.297 N 
ATOM     39  H   GLU A   3      10.656   2.224   9.802  0.00  0.00    +0.150 HD
BRANCH  36  40
ATOM     40  CA  LYS A   2      10.776   4.609  10.712  0.00  0.00    +0.149 C 
BRANCH  40  43
ATOM     41  C   THR A   1      12.953   3.564  10.509  0.00  0.00    +0.241 C 
ATOM     42  O   THR A   1      12.979   3.290  11.707  0.00  0.00    -0.274 OA
ATOM     43  N   LYS A   2      11.932   4.186   9.934  0.00  0.00    -0.297 N 
ATOM     44  H   LYS A   2      11.958   4.374   8.912  0.00  0.00    +0.150 HD
BRANCH  41  45
ATOM     45  CA  THR A   1      14.107   3.182   9.596  0.00  0.00    +0.172 C 
BRANCH  45  46
ATOM     46  CB  THR A   1      14.249   1.641   9.603  0.00  0.00    +0.135 C 
ATOM     47  CG2 THR A   1      15.574   1.217   8.966  0.00  0.00    +0.034 C 
BRANCH  46  48
ATOM     48  OG1 THR A   1      14.203   1.164  10.954  0.00  0.00    -0.383 OA
ATOM     49  HG1 THR A   1      13.338   1.418  11.363  0.00  0.00    +0.210 HD
ENDBRANCH  46  48
ENDBRANCH  45  46
BRANCH  45  50
ATOM     50  N   THR A   1      15.355   3.834   9.996  0.00  0.00    -0.236 NA
ATOM     51  H   THR A   1      15.725   3.679  10.956  0.00  0.00    +0.142 HD
ENDBRANCH  45  50
ENDBRANCH  41  45
ENDBRANCH  40  43
BRANCH  40  52
ATOM     52  CB  LYS A   2       9.806   5.410   9.832  0.00  0.00    +0.029 C 
BRANCH  52  53
ATOM     53  CG  LYS A   2      10.015   5.239   8.333  0.00  0.00    +0.000 C 
BRANCH  53  54
ATOM     54  CD  LYS A   2       8.793   5.691   7.550  0.00  0.00    -0.024 C 
BRANCH  54  55
ATOM     55  CE  LYS A   2       8.778   7.201   7.371  0.00  0.00    -0.086 C 
BRANCH  55  56
ATOM     56  NZ  LYS A   2       7.491   7.680   6.795  0.00  0.00    +0.380 N 
ATOM     57  HZ1 LYS A   2       6.710   7.419   7.430  0.00  0.00    -0.089 HD
ATOM     58  HZ2 LYS A   2       7.523   8.714   6.690  0.00  0.00    -0.089 HD
ATOM     59  HZ3 LYS A   2       7.344   7.240   5.864  0.00  0.00    -0.089 HD
ENDBRANCH  55  56
ENDBRANCH  54  55
ENDBRANCH  53  54
ENDBRANCH  52  53
ENDBRANCH  40  52
ENDBRANCH  36  40
ENDBRANCH  35  38
BRANCH  35  60
ATOM     60  CB  GLU A   3       9.495  -0.024  10.116  0.00  0.00    +0.041 C 
BRANCH  60  61
ATOM     61  CG  GLU A   3       8.257  -0.906  10.055  0.00  0.00    +0.116 C 
BRANCH  61  62
ATOM     62  CD  GLU A   3       7.003  -0.128   9.707  0.00  0.00    +0.365 C 
ATOM     63  OE2 GLU A   3       6.100  -0.038  10.565  0.00  0.00    -0.246 OA
ATOM     64  OE1 GLU A   3       6.919   0.392   8.574  0.00  0.00    -0.246 OA
ENDBRANCH  61  62
ENDBRANCH  60  61
ENDBRANCH  35  60
ENDBRANCH   1  35
TORSDOF 29
REMARK  Name = ../refined-set-2016/1nfu/1nfu_pocket.pdb
REMARK  206 active torsions:
REMARK  status: ('A' for Active; 'I' for Inactive)
REMARK    1  A    between atoms: _1  and  _5
REMARK    2  A    between atoms: _5  and  _6
REMARK    3  A    between atoms: _5  and  _8
REMARK    4  A    between atoms: _8  and  _9
REMARK    5  A    between atoms: _12  and  _14
REMARK    6  A    between atoms: _14  and  _15
REMARK    7  A    between atoms: _14  and  _17
REMARK    8  A    between atoms: _20  and  _22
REMARK    9  A    between atoms: _22  and  _23
REMARK   10  A    between atoms: _22  and  _25
REMARK   11  A    between atoms: _25  and  _26
REMARK   12  A    between atoms: _32  and  _34
REMARK   13  A    between atoms: _34  and  _35
REMARK   14  A    between atoms: _34  and  _37
REMARK   15  A    between atoms: _37  and  _38
REMARK   16  A    between atoms: _43  and  _45
REMARK   17  A    between atoms: _45  and  _46
REMARK   18  A    between atoms: _45  and  _48
REMARK   19  A    between atoms: _48  and  _49
REMARK   20  A    between atoms: _49  and  _50
REMARK   21  A    between atoms: _55  and  _57
REMARK   22  A    between atoms: _57  and  _58
REMARK   23  A    between atoms: _57  and  _60
REMARK   24  A    between atoms: _60  and  _61
REMARK   25  A    between atoms: _64  and  _66
REMARK   26  A    between atoms: _66  and  _67
REMARK   27  A    between atoms: _66  and  _69
REMARK   28  A    between atoms: _69  and  _70
REMARK   29  A    between atoms: _70  and  _71
REMARK   30  A    between atoms: _71  and  _72
REMARK   31  A    between atoms: _72  and  _73
REMARK   32  A    between atoms: _77  and  _79
REMARK   33  A    between atoms: _79  and  _80
REMARK   34  A    between atoms: _79  and  _82
REMARK   35  A    between atoms: _82  and  _83
REMARK   36  A    between atoms: _83  and  _84
REMARK   37  A    between atoms: _87  and  _89
REMARK   38  A    between atoms: _89  and  _90
REMARK   39  A    between atoms: _89  and  _92
REMARK   40  A    between atoms: _92  and  _93
REMARK   41  A    between atoms: _96  and  _98
REMARK   42  A    between atoms: _98  and  _99
REMARK   43  A    between atoms: _98  and  _101
REMARK   44  A    between atoms: _101  and  _102
REMARK   45  A    between atoms: _107  and  _108
REMARK   46  A    between atoms: _110  and  _112
REMARK   47  A    between atoms: _112  and  _113
REMARK   48  A    between atoms: _112  and  _115
REMARK   49  A    between atoms: _115  and  _116
REMARK   50  A    between atoms: _119  and  _121
REMARK   51  A    between atoms: _121  and  _122
REMARK   52  A    between atoms: _121  and  _124
REMARK   53  A    between atoms: _127  and  _129
REMARK   54  A    between atoms: _129  and  _130
REMARK   55  A    between atoms: _129  and  _132
REMARK   56  A    between atoms: _132  and  _133
REMARK   57  A    between atoms: _133  and  _134
REMARK   58  A    between atoms: _134  and  _135
REMARK   59  A    between atoms: _144  and  _146
REMARK   60  A    between atoms: _146  and  _147
REMARK   61  A    between atoms: _146  and  _149
REMARK   62  A    between atoms: _149  and  _150
REMARK   63  A    between atoms: _155  and  _157
REMARK   64  A    between atoms: _157  and  _158
REMARK   65  A    between atoms: _157  and  _160
REMARK   66  A    between atoms: _160  and  _161
REMARK   67  A    between atoms: _161  and  _162
REMARK   68  A    between atoms: _165  and  _167
REMARK   69  A    between atoms: _167  and  _168
REMARK   70  A    between atoms: _167  and  _170
REMARK   71  A    between atoms: _170  and  _171
REMARK   72  A    between atoms: _171  and  _172
REMARK   73  A    between atoms: _172  and  _173
REMARK   74  A    between atoms: _173  and  _174
REMARK   75  A    between atoms: _178  and  _180
REMARK   76  A    between atoms: _180  and  _181
REMARK   77  A    between atoms: _180  and  _183
REMARK   78  A    between atoms: _186  and  _188
REMARK   79  A    between atoms: _188  and  _189
REMARK   80  A    between atoms: _188  and  _191
REMARK   81  A    between atoms: _191  and  _192
REMARK   82  A    between atoms: _194  and  _196
REMARK   83  A    between atoms: _196  and  _197
REMARK   84  A    between atoms: _196  and  _199
REMARK   85  A    between atoms: _199  and  _200
REMARK   86  A    between atoms: _202  and  _204
REMARK   87  A    between atoms: _204  and  _205
REMARK   88  A    between atoms: _204  and  _207
REMARK   89  A    between atoms: _207  and  _208
REMARK   90  A    between atoms: _214  and  _216
REMARK   91  A    between atoms: _216  and  _217
REMARK   92  A    between atoms: _216  and  _219
REMARK   93  A    between atoms: _219  and  _220
REMARK   94  A    between atoms: _223  and  _225
REMARK   95  A    between atoms: _225  and  _226
REMARK   96  A    between atoms: _225  and  _228
REMARK   97  A    between atoms: _228  and  _229
REMARK   98  A    between atoms: _235  and  _237
REMARK   99  A    between atoms: _237  and  _238
REMARK  100  A    between atoms: _237  and  _240
REMARK  101  A    between atoms: _242  and  _244
REMARK  102  A    between atoms: _244  and  _245
REMARK  103  A    between atoms: _248  and  _250
REMARK  104  A    between atoms: _250  and  _251
REMARK  105  A    between atoms: _253  and  _255
REMARK  106  A    between atoms: _255  and  _256
REMARK  107  A    between atoms: _255  and  _258
REMARK  108  A    between atoms: _258  and  _259
REMARK  109  A    between atoms: _259  and  _260
REMARK  110  A    between atoms: _263  and  _265
REMARK  111  A    between atoms: _265  and  _266
REMARK  112  A    between atoms: _265  and  _268
REMARK  113  A    between atoms: _268  and  _269
REMARK  114  A    between atoms: _272  and  _274
REMARK  115  A    between atoms: _274  and  _275
REMARK  116  A    between atoms: _278  and  _280
REMARK  117  A    between atoms: _280  and  _281
REMARK  118  A    between atoms: _280  and  _283
REMARK  119  A    between atoms: _283  and  _284
REMARK  120  A    between atoms: _284  and  _407
REMARK  121  A    between atoms: _285  and  _287
REMARK  122  A    between atoms: _287  and  _288
REMARK  123  A    between atoms: _287  and  _290
REMARK  124  A    between atoms: _290  and  _291
REMARK  125  A    between atoms: _291  and  _292
REMARK  126  A    between atoms: _297  and  _299
REMARK  127  A    between atoms: _299  and  _300
REMARK  128  A    between atoms: _302  and  _304
REMARK  129  A    between atoms: _304  and  _305
REMARK  130  A    between atoms: _304  and  _307
REMARK  131  A    between atoms: _307  and  _308
REMARK  132  A    between atoms: _311  and  _313
REMARK  133  A    between atoms: _313  and  _314
REMARK  134  A    between atoms: _313  and  _316
REMARK  135  A    between atoms: _316  and  _317
REMARK  136  A    between atoms: _319  and  _321
REMARK  137  A    between atoms: _321  and  _322
REMARK  138  A    between atoms: _324  and  _326
REMARK  139  A    between atoms: _326  and  _327
REMARK  140  A    between atoms: _329  and  _331
REMARK  141  A    between atoms: _331  and  _332
REMARK  142  A    between atoms: _331  and  _334
REMARK  143  A    between atoms: _334  and  _335
REMARK  144  A    between atoms: _340  and  _342
REMARK  145  A    between atoms: _342  and  _343
REMARK  146  A    between atoms: _342  and  _345
REMARK  147  A    between atoms: _345  and  _346
REMARK  148  A    between atoms: _349  and  _351
REMARK  149  A    between atoms: _351  and  _352
REMARK  150  A    between atoms: _351  and  _354
REMARK  151  A    between atoms: _357  and  _359
REMARK  152  A    between atoms: _359  and  _360
REMARK  153  A    between atoms: _359  and  _362
REMARK  154  A    between atoms: _362  and  _363
REMARK  155  A    between atoms: _365  and  _367
REMARK  156  A    between atoms: _367  and  _368
REMARK  157  A    between atoms: _367  and  _370
REMARK  158  A    between atoms: _370  and  _371
REMARK  159  A    between atoms: _381  and  _383
REMARK  160  A    between atoms: _383  and  _384
REMARK  161  A    between atoms: _386  and  _388
REMARK  162  A    between atoms: _388  and  _389
REMARK  163  A    between atoms: _388  and  _391
REMARK  164  A    between atoms: _391  and  _392
REMARK  165  A    between atoms: _392  and  _393
REMARK  166  A    between atoms: _396  and  _398
REMARK  167  A    between atoms: _398  and  _399
REMARK  168  A    between atoms: _401  and  _403
REMARK  169  A    between atoms: _403  and  _404
REMARK  170  A    between atoms: _403  and  _406
REMARK  171  A    between atoms: _406  and  _407
REMARK  172  A    between atoms: _408  and  _410
REMARK  173  A    between atoms: _410  and  _411
REMARK  174  A    between atoms: _414  and  _416
REMARK  175  A    between atoms: _416  and  _417
REMARK  176  A    between atoms: _416  and  _419
REMARK  177  A    between atoms: _419  and  _420
REMARK  178  A    between atoms: _420  and  _421
REMARK  179  A    between atoms: _421  and  _422
REMARK  180  A    between atoms: _431  and  _433
REMARK  181  A    between atoms: _433  and  _434
REMARK  182  A    between atoms: _433  and  _436
REMARK  183  A    between atoms: _436  and  _437
REMARK  184  A    between atoms: _437  and  _438
REMARK  185  A    between atoms: _438  and  _439
REMARK  186  A    between atoms: _439  and  _440
REMARK  187  A    between atoms: _444  and  _446
REMARK  188  A    between atoms: _446  and  _447
REMARK  189  A    between atoms: _446  and  _449
REMARK  190  A    between atoms: _449  and  _450
REMARK  191  A    between atoms: _455  and  _456
REMARK  192  A    between atoms: _458  and  _460
REMARK  193  A    between atoms: _460  and  _461
REMARK  194  A    between atoms: _463  and  _465
REMARK  195  A    between atoms: _465  and  _466
REMARK  196  A    between atoms: _465  and  _468
REMARK  197  A    between atoms: _468  and  _469
REMARK  198  A    between atoms: _472  and  _474
REMARK  199  A    between atoms: _474  and  _475
REMARK  200  A    between atoms: _474  and  _477
REMARK  201  A    between atoms: _477  and  _478
REMARK  202  A    between atoms: _483  and  _484
REMARK  203  A    between atoms: _486  and  _488
REMARK  204  A    between atoms: _488  and  _489
REMARK  205  A    between atoms: _488  and  _491
REMARK  206  A    between atoms: _491  and  _492
REMARK                            x       y       z     vdW  Elec       q    Type
REMARK                         _______ _______ _______ _____ _____    ______ ____
ROOT
ATOM      1  CA  VAL A   1      18.235  12.258  30.629  0.00  0.00    +0.133 C 
ENDROOT
BRANCH   1   2
ATOM      2  CB  VAL A   1      17.177  11.154  30.316  0.00  0.00    +0.023 C 
ATOM      3  CG2 VAL A   1      16.257  10.952  31.513  0.00  0.00    +0.002 C 
ATOM      4  CG1 VAL A   1      16.370  11.529  29.083  0.00  0.00    +0.002 C 
ENDBRANCH   1   2
BRANCH   1   5
ATOM      5  N   VAL A   1      19.027  11.919  31.803  0.00  0.00    -0.239 NA
ATOM      6  H   VAL A   1      18.549  11.724  32.706  0.00  0.00    +0.142 HD
ENDBRANCH   1   5
BRANCH   1   7
ATOM      7  C   VAL A   1      17.544  13.586  30.945  0.00  0.00    +0.224 C 
ATOM      8  O   VAL A   1      17.179  13.833  32.092  0.00  0.00    -0.287 OA
ENDBRANCH   1   7
TORSDOF 3
REMARK  Name = ../refined-set-2016/1nfu/1nfu_pocket.pdb
REMARK  206 active torsions:
REMARK  status: ('A' for Active; 'I' for Inactive)
REMARK    1  A    between atoms: _1  and  _5
REMARK    2  A    between atoms: _5  and  _6
REMARK    3  A    between atoms: _5  and  _8
REMARK    4  A    between atoms: _8  and  _9
REMARK    5  A    between atoms: _12  and  _14
REMARK    6  A    between atoms: _14  and  _15
REMARK    7  A    between atoms: _14  and  _17
REMARK    8  A    between atoms: _20  and  _22
REMARK    9  A    between atoms: _22  and  _23
REMARK   10  A    between atoms: _22  and  _25
REMARK   11  A    between atoms: _25  and  _26
REMARK   12  A    between atoms: _32  and  _34
REMARK   13  A    between atoms: _34  and  _35
REMARK   14  A    between atoms: _34  and  _37
REMARK   15  A    between atoms: _37  and  _38
REMARK   16  A    between atoms: _43  and  _45
REMARK   17  A    between atoms: _45  and  _46
REMARK   18  A    between atoms: _45  and  _48
REMARK   19  A    between atoms: _48  and  _49
REMARK   20  A    between atoms: _49  and  _50
REMARK   21  A    between atoms: _55  and  _57
REMARK   22  A    between atoms: _57  and  _58
REMARK   23  A    between atoms: _57  and  _60
REMARK   24  A    between atoms: _60  and  _61
REMARK   25  A    between atoms: _64  and  _66
REMARK   26  A    between atoms: _66  and  _67
REMARK   27  A    between atoms: _66  and  _69
REMARK   28  A    between atoms: _69  and  _70
REMARK   29  A    between atoms: _70  and  _71
REMARK   30  A    between atoms: _71  and  _72
REMARK   31  A    between atoms: _72  and  _73
REMARK   32  A    between atoms: _77  and  _79
REMARK   33  A    between atoms: _79  and  _80
REMARK   34  A    between atoms: _79  and  _82
REMARK   35  A    between atoms: _82  and  _83
REMARK   36  A    between atoms: _83  and  _84
REMARK   37  A    between atoms: _87  and  _89
REMARK   38  A    between atoms: _89  and  _90
REMARK   39  A    between atoms: _89  and  _92
REMARK   40  A    between atoms: _92  and  _93
REMARK   41  A    between atoms: _96  and  _98
REMARK   42  A    between atoms: _98  and  _99
REMARK   43  A    between atoms: _98  and  _101
REMARK   44  A    between atoms: _101  and  _102
REMARK   45  A    between atoms: _107  and  _108
REMARK   46  A    between atoms: _110  and  _112
REMARK   47  A    between atoms: _112  and  _113
REMARK   48  A    between atoms: _112  and  _115
REMARK   49  A    between atoms: _115  and  _116
REMARK   50  A    between atoms: _119  and  _121
REMARK   51  A    between atoms: _121  and  _122
REMARK   52  A    between atoms: _121  and  _124
REMARK   53  A    between atoms: _127  and  _129
REMARK   54  A    between atoms: _129  and  _130
REMARK   55  A    between atoms: _129  and  _132
REMARK   56  A    between atoms: _132  and  _133
REMARK   57  A    between atoms: _133  and  _134
REMARK   58  A    between atoms: _134  and  _135
REMARK   59  A    between atoms: _144  and  _146
REMARK   60  A    between atoms: _146  and  _147
REMARK   61  A    between atoms: _146  and  _149
REMARK   62  A    between atoms: _149  and  _150
REMARK   63  A    between atoms: _155  and  _157
REMARK   64  A    between atoms: _157  and  _158
REMARK   65  A    between atoms: _157  and  _160
REMARK   66  A    between atoms: _160  and  _161
REMARK   67  A    between atoms: _161  and  _162
REMARK   68  A    between atoms: _165  and  _167
REMARK   69  A    between atoms: _167  and  _168
REMARK   70  A    between atoms: _167  and  _170
REMARK   71  A    between atoms: _170  and  _171
REMARK   72  A    between atoms: _171  and  _172
REMARK   73  A    between atoms: _172  and  _173
REMARK   74  A    between atoms: _173  and  _174
REMARK   75  A    between atoms: _178  and  _180
REMARK   76  A    between atoms: _180  and  _181
REMARK   77  A    between atoms: _180  and  _183
REMARK   78  A    between atoms: _186  and  _188
REMARK   79  A    between atoms: _188  and  _189
REMARK   80  A    between atoms: _188  and  _191
REMARK   81  A    between atoms: _191  and  _192
REMARK   82  A    between atoms: _194  and  _196
REMARK   83  A    between atoms: _196  and  _197
REMARK   84  A    between atoms: _196  and  _199
REMARK   85  A    between atoms: _199  and  _200
REMARK   86  A    between atoms: _202  and  _204
REMARK   87  A    between atoms: _204  and  _205
REMARK   88  A    between atoms: _204  and  _207
REMARK   89  A    between atoms: _207  and  _208
REMARK   90  A    between atoms: _214  and  _216
REMARK   91  A    between atoms: _216  and  _217
REMARK   92  A    between atoms: _216  and  _219
REMARK   93  A    between atoms: _219  and  _220
REMARK   94  A    between atoms: _223  and  _225
REMARK   95  A    between atoms: _225  and  _226
REMARK   96  A    between atoms: _225  and  _228
REMARK   97  A    between atoms: _228  and  _229
REMARK   98  A    between atoms: _235  and  _237
REMARK   99  A    between atoms: _237  and  _238
REMARK  100  A    between atoms: _237  and  _240
REMARK  101  A    between atoms: _242  and  _244
REMARK  102  A    between atoms: _244  and  _245
REMARK  103  A    between atoms: _248  and  _250
REMARK  104  A    between atoms: _250  and  _251
REMARK  105  A    between atoms: _253  and  _255
REMARK  106  A    between atoms: _255  and  _256
REMARK  107  A    between atoms: _255  and  _258
REMARK  108  A    between atoms: _258  and  _259
REMARK  109  A    between atoms: _259  and  _260
REMARK  110  A    between atoms: _263  and  _265
REMARK  111  A    between atoms: _265  and  _266
REMARK  112  A    between atoms: _265  and  _268
REMARK  113  A    between atoms: _268  and  _269
REMARK  114  A    between atoms: _272  and  _274
REMARK  115  A    between atoms: _274  and  _275
REMARK  116  A    between atoms: _278  and  _280
REMARK  117  A    between atoms: _280  and  _281
REMARK  118  A    between atoms: _280  and  _283
REMARK  119  A    between atoms: _283  and  _284
REMARK  120  A    between atoms: _284  and  _407
REMARK  121  A    between atoms: _285  and  _287
REMARK  122  A    between atoms: _287  and  _288
REMARK  123  A    between atoms: _287  and  _290
REMARK  124  A    between atoms: _290  and  _291
REMARK  125  A    between atoms: _291  and  _292
REMARK  126  A    between atoms: _297  and  _299
REMARK  127  A    between atoms: _299  and  _300
REMARK  128  A    between atoms: _302  and  _304
REMARK  129  A    between atoms: _304  and  _305
REMARK  130  A    between atoms: _304  and  _307
REMARK  131  A    between atoms: _307  and  _308
REMARK  132  A    between atoms: _311  and  _313
REMARK  133  A    between atoms: _313  and  _314
REMARK  134  A    between atoms: _313  and  _316
REMARK  135  A    between atoms: _316  and  _317
REMARK  136  A    between atoms: _319  and  _321
REMARK  137  A    between atoms: _321  and  _322
REMARK  138  A    between atoms: _324  and  _326
REMARK  139  A    between atoms: _326  and  _327
REMARK  140  A    between atoms: _329  and  _331
REMARK  141  A    between atoms: _331  and  _332
REMARK  142  A    between atoms: _331  and  _334
REMARK  143  A    between atoms: _334  and  _335
REMARK  144  A    between atoms: _340  and  _342
REMARK  145  A    between atoms: _342  and  _343
REMARK  146  A    between atoms: _342  and  _345
REMARK  147  A    between atoms: _345  and  _346
REMARK  148  A    between atoms: _349  and  _351
REMARK  149  A    between atoms: _351  and  _352
REMARK  150  A    between atoms: _351  and  _354
REMARK  151  A    between atoms: _357  and  _359
REMARK  152  A    between atoms: _359  and  _360
REMARK  153  A    between atoms: _359  and  _362
REMARK  154  A    between atoms: _362  and  _363
REMARK  155  A    between atoms: _365  and  _367
REMARK  156  A    between atoms: _367  and  _368
REMARK  157  A    between atoms: _367  and  _370
REMARK  158  A    between atoms: _370  and  _371
REMARK  159  A    between atoms: _381  and  _383
REMARK  160  A    between atoms: _383  and  _384
REMARK  161  A    between atoms: _386  and  _388
REMARK  162  A    between atoms: _388  and  _389
REMARK  163  A    between atoms: _388  and  _391
REMARK  164  A    between atoms: _391  and  _392
REMARK  165  A    between atoms: _392  and  _393
REMARK  166  A    between atoms: _396  and  _398
REMARK  167  A    between atoms: _398  and  _399
REMARK  168  A    between atoms: _401  and  _403
REMARK  169  A    between atoms: _403  and  _404
REMARK  170  A    between atoms: _403  and  _406
REMARK  171  A    between atoms: _406  and  _407
REMARK  172  A    between atoms: _408  and  _410
REMARK  173  A    between atoms: _410  and  _411
REMARK  174  A    between atoms: _414  and  _416
REMARK  175  A    between atoms: _416  and  _417
REMARK  176  A    between atoms: _416  and  _419
REMARK  177  A    between atoms: _419  and  _420
REMARK  178  A    between atoms: _420  and  _421
REMARK  179  A    between atoms: _421  and  _422
REMARK  180  A    between atoms: _431  and  _433
REMARK  181  A    between atoms: _433  and  _434
REMARK  182  A    between atoms: _433  and  _436
REMARK  183  A    between atoms: _436  and  _437
REMARK  184  A    between atoms: _437  and  _438
REMARK  185  A    between atoms: _438  and  _439
REMARK  186  A    between atoms: _439  and  _440
REMARK  187  A    between atoms: _444  and  _446
REMARK  188  A    between atoms: _446  and  _447
REMARK  189  A    between atoms: _446  and  _449
REMARK  190  A    between atoms: _449  and  _450
REMARK  191  A    between atoms: _455  and  _456
REMARK  192  A    between atoms: _458  and  _460
REMARK  193  A    between atoms: _460  and  _461
REMARK  194  A    between atoms: _463  and  _465
REMARK  195  A    between atoms: _465  and  _466
REMARK  196  A    between atoms: _465  and  _468
REMARK  197  A    between atoms: _468  and  _469
REMARK  198  A    between atoms: _472  and  _474
REMARK  199  A    between atoms: _474  and  _475
REMARK  200  A    between atoms: _474  and  _477
REMARK  201  A    between atoms: _477  and  _478
REMARK  202  A    between atoms: _483  and  _484
REMARK  203  A    between atoms: _486  and  _488
REMARK  204  A    between atoms: _488  and  _489
REMARK  205  A    between atoms: _488  and  _491
REMARK  206  A    between atoms: _491  and  _492
REMARK                            x       y       z     vdW  Elec       q    Type
REMARK                         _______ _______ _______ _____ _____    ______ ____
ROOT
ATOM      1  NE  ARG A   1       2.543  14.119  25.119  0.00  0.00    -0.265 N 
ATOM      2  CZ  ARG A   1       1.264  13.890  24.845  0.00  0.00    +0.342 C 
ATOM      3  NH2 ARG A   1       0.464  13.386  25.777  0.00  0.00    -0.292 N 
ATOM      4 HH21 ARG A   1       0.839  13.170  26.723  0.00  0.00    +0.255 HD
ATOM      5 HH22 ARG A   1      -0.538  13.207  25.561  0.00  0.00    +0.255 HD
ATOM      6  NH1 ARG A   1       0.787  14.151  23.636  0.00  0.00    -0.292 N 
ATOM      7 HH11 ARG A   1      -0.215  13.971  23.422  0.00  0.00    +0.255 HD
ATOM      8 HH12 ARG A   1       1.415  14.535  22.901  0.00  0.00    +0.255 HD
ATOM      9  HE  ARG A   1       3.142  14.515  24.367  0.00  0.00    +0.259 HD
ENDROOT
BRANCH   1  10
ATOM     10  CD  ARG A   1       3.155  13.847  26.413  0.00  0.00    +0.174 C 
BRANCH  10  11
ATOM     11  CG  ARG A   1       4.097  14.947  26.847  0.00  0.00    +0.045 C 
BRANCH  11  12
ATOM     12  CB  ARG A   1       4.704  14.595  28.180  0.00  0.00    +0.029 C 
BRANCH  12  13
ATOM     13  CA  ARG A   1       5.626  15.657  28.769  0.00  0.00    +0.133 C 
BRANCH  13  14
ATOM     14  N   ARG A   1       6.764  15.882  27.887  0.00  0.00    -0.239 NA
ATOM     15  H   ARG A   1       6.764  15.446  26.943  0.00  0.00    +0.142 HD
ENDBRANCH  13  14
BRANCH  13  16
ATOM     16  C   ARG A   1       6.021  15.227  30.173  0.00  0.00    +0.224 C 
ATOM     17  O   ARG A   1       7.058  14.597  30.379  0.00  0.00    -0.287 OA
ENDBRANCH  13  16
ENDBRANCH  12  13
ENDBRANCH  11  12
ENDBRANCH  10  11
ENDBRANCH   1  10
TORSDOF 6
REMARK  Name = ../refined-set-2016/1nfu/1nfu_pocket.pdb
REMARK  206 active torsions:
REMARK  status: ('A' for Active; 'I' for Inactive)
REMARK    1  A    between atoms: _1  and  _5
REMARK    2  A    between atoms: _5  and  _6
REMARK    3  A    between atoms: _5  and  _8
REMARK    4  A    between atoms: _8  and  _9
REMARK    5  A    between atoms: _12  and  _14
REMARK    6  A    between atoms: _14  and  _15
REMARK    7  A    between atoms: _14  and  _17
REMARK    8  A    between atoms: _20  and  _22
REMARK    9  A    between atoms: _22  and  _23
REMARK   10  A    between atoms: _22  and  _25
REMARK   11  A    between atoms: _25  and  _26
REMARK   12  A    between atoms: _32  and  _34
REMARK   13  A    between atoms: _34  and  _35
REMARK   14  A    between atoms: _34  and  _37
REMARK   15  A    between atoms: _37  and  _38
REMARK   16  A    between atoms: _43  and  _45
REMARK   17  A    between atoms: _45  and  _46
REMARK   18  A    between atoms: _45  and  _48
REMARK   19  A    between atoms: _48  and  _49
REMARK   20  A    between atoms: _49  and  _50
REMARK   21  A    between atoms: _55  and  _57
REMARK   22  A    between atoms: _57  and  _58
REMARK   23  A    between atoms: _57  and  _60
REMARK   24  A    between atoms: _60  and  _61
REMARK   25  A    between atoms: _64  and  _66
REMARK   26  A    between atoms: _66  and  _67
REMARK   27  A    between atoms: _66  and  _69
REMARK   28  A    between atoms: _69  and  _70
REMARK   29  A    between atoms: _70  and  _71
REMARK   30  A    between atoms: _71  and  _72
REMARK   31  A    between atoms: _72  and  _73
REMARK   32  A    between atoms: _77  and  _79
REMARK   33  A    between atoms: _79  and  _80
REMARK   34  A    between atoms: _79  and  _82
REMARK   35  A    between atoms: _82  and  _83
REMARK   36  A    between atoms: _83  and  _84
REMARK   37  A    between atoms: _87  and  _89
REMARK   38  A    between atoms: _89  and  _90
REMARK   39  A    between atoms: _89  and  _92
REMARK   40  A    between atoms: _92  and  _93
REMARK   41  A    between atoms: _96  and  _98
REMARK   42  A    between atoms: _98  and  _99
REMARK   43  A    between atoms: _98  and  _101
REMARK   44  A    between atoms: _101  and  _102
REMARK   45  A    between atoms: _107  and  _108
REMARK   46  A    between atoms: _110  and  _112
REMARK   47  A    between atoms: _112  and  _113
REMARK   48  A    between atoms: _112  and  _115
REMARK   49  A    between atoms: _115  and  _116
REMARK   50  A    between atoms: _119  and  _121
REMARK   51  A    between atoms: _121  and  _122
REMARK   52  A    between atoms: _121  and  _124
REMARK   53  A    between atoms: _127  and  _129
REMARK   54  A    between atoms: _129  and  _130
REMARK   55  A    between atoms: _129  and  _132
REMARK   56  A    between atoms: _132  and  _133
REMARK   57  A    between atoms: _133  and  _134
REMARK   58  A    between atoms: _134  and  _135
REMARK   59  A    between atoms: _144  and  _146
REMARK   60  A    between atoms: _146  and  _147
REMARK   61  A    between atoms: _146  and  _149
REMARK   62  A    between atoms: _149  and  _150
REMARK   63  A    between atoms: _155  and  _157
REMARK   64  A    between atoms: _157  and  _158
REMARK   65  A    between atoms: _157  and  _160
REMARK   66  A    between atoms: _160  and  _161
REMARK   67  A    between atoms: _161  and  _162
REMARK   68  A    between atoms: _165  and  _167
REMARK   69  A    between atoms: _167  and  _168
REMARK   70  A    between atoms: _167  and  _170
REMARK   71  A    between atoms: _170  and  _171
REMARK   72  A    between atoms: _171  and  _172
REMARK   73  A    between atoms: _172  and  _173
REMARK   74  A    between atoms: _173  and  _174
REMARK   75  A    between atoms: _178  and  _180
REMARK   76  A    between atoms: _180  and  _181
REMARK   77  A    between atoms: _180  and  _183
REMARK   78  A    between atoms: _186  and  _188
REMARK   79  A    between atoms: _188  and  _189
REMARK   80  A    between atoms: _188  and  _191
REMARK   81  A    between atoms: _191  and  _192
REMARK   82  A    between atoms: _194  and  _196
REMARK   83  A    between atoms: _196  and  _197
REMARK   84  A    between atoms: _196  and  _199
REMARK   85  A    between atoms: _199  and  _200
REMARK   86  A    between atoms: _202  and  _204
REMARK   87  A    between atoms: _204  and  _205
REMARK   88  A    between atoms: _204  and  _207
REMARK   89  A    between atoms: _207  and  _208
REMARK   90  A    between atoms: _214  and  _216
REMARK   91  A    between atoms: _216  and  _217
REMARK   92  A    between atoms: _216  and  _219
REMARK   93  A    between atoms: _219  and  _220
REMARK   94  A    between atoms: _223  and  _225
REMARK   95  A    between atoms: _225  and  _226
REMARK   96  A    between atoms: _225  and  _228
REMARK   97  A    between atoms: _228  and  _229
REMARK   98  A    between atoms: _235  and  _237
REMARK   99  A    between atoms: _237  and  _238
REMARK  100  A    between atoms: _237  and  _240
REMARK  101  A    between atoms: _242  and  _244
REMARK  102  A    between atoms: _244  and  _245
REMARK  103  A    between atoms: _248  and  _250
REMARK  104  A    between atoms: _250  and  _251
REMARK  105  A    between atoms: _253  and  _255
REMARK  106  A    between atoms: _255  and  _256
REMARK  107  A    between atoms: _255  and  _258
REMARK  108  A    between atoms: _258  and  _259
REMARK  109  A    between atoms: _259  and  _260
REMARK  110  A    between atoms: _263  and  _265
REMARK  111  A    between atoms: _265  and  _266
REMARK  112  A    between atoms: _265  and  _268
REMARK  113  A    between atoms: _268  and  _269
REMARK  114  A    between atoms: _272  and  _274
REMARK  115  A    between atoms: _274  and  _275
REMARK  116  A    between atoms: _278  and  _280
REMARK  117  A    between atoms: _280  and  _281
REMARK  118  A    between atoms: _280  and  _283
REMARK  119  A    between atoms: _283  and  _284
REMARK  120  A    between atoms: _284  and  _407
REMARK  121  A    between atoms: _285  and  _287
REMARK  122  A    between atoms: _287  and  _288
REMARK  123  A    between atoms: _287  and  _290
REMARK  124  A    between atoms: _290  and  _291
REMARK  125  A    between atoms: _291  and  _292
REMARK  126  A    between atoms: _297  and  _299
REMARK  127  A    between atoms: _299  and  _300
REMARK  128  A    between atoms: _302  and  _304
REMARK  129  A    between atoms: _304  and  _305
REMARK  130  A    between atoms: _304  and  _307
REMARK  131  A    between atoms: _307  and  _308
REMARK  132  A    between atoms: _311  and  _313
REMARK  133  A    between atoms: _313  and  _314
REMARK  134  A    between atoms: _313  and  _316
REMARK  135  A    between atoms: _316  and  _317
REMARK  136  A    between atoms: _319  and  _321
REMARK  137  A    between atoms: _321  and  _322
REMARK  138  A    between atoms: _324  and  _326
REMARK  139  A    between atoms: _326  and  _327
REMARK  140  A    between atoms: _329  and  _331
REMARK  141  A    between atoms: _331  and  _332
REMARK  142  A    between atoms: _331  and  _334
REMARK  143  A    between atoms: _334  and  _335
REMARK  144  A    between atoms: _340  and  _342
REMARK  145  A    between atoms: _342  and  _343
REMARK  146  A    between atoms: _342  and  _345
REMARK  147  A    between atoms: _345  and  _346
REMARK  148  A    between atoms: _349  and  _351
REMARK  149  A    between atoms: _351  and  _352
REMARK  150  A    between atoms: _351  and  _354
REMARK  151  A    between atoms: _357  and  _359
REMARK  152  A    between atoms: _359  and  _360
REMARK  153  A    between atoms: _359  and  _362
REMARK  154  A    between atoms: _362  and  _363
REMARK  155  A    between atoms: _365  and  _367
REMARK  156  A    between atoms: _367  and  _368
REMARK  157  A    between atoms: _367  and  _370
REMARK  158  A    between atoms: _370  and  _371
REMARK  159  A    between atoms: _381  and  _383
REMARK  160  A    between atoms: _383  and  _384
REMARK  161  A    between atoms: _386  and  _388
REMARK  162  A    between atoms: _388  and  _389
REMARK  163  A    between atoms: _388  and  _391
REMARK  164  A    between atoms: _391  and  _392
REMARK  165  A    between atoms: _392  and  _393
REMARK  166  A    between atoms: _396  and  _398
REMARK  167  A    between atoms: _398  and  _399
REMARK  168  A    between atoms: _401  and  _403
REMARK  169  A    between atoms: _403  and  _404
REMARK  170  A    between atoms: _403  and  _406
REMARK  171  A    between atoms: _406  and  _407
REMARK  172  A    between atoms: _408  and  _410
REMARK  173  A    between atoms: _410  and  _411
REMARK  174  A    between atoms: _414  and  _416
REMARK  175  A    between atoms: _416  and  _417
REMARK  176  A    between atoms: _416  and  _419
REMARK  177  A    between atoms: _419  and  _420
REMARK  178  A    between atoms: _420  and  _421
REMARK  179  A    between atoms: _421  and  _422
REMARK  180  A    between atoms: _431  and  _433
REMARK  181  A    between atoms: _433  and  _434
REMARK  182  A    between atoms: _433  and  _436
REMARK  183  A    between atoms: _436  and  _437
REMARK  184  A    between atoms: _437  and  _438
REMARK  185  A    between atoms: _438  and  _439
REMARK  186  A    between atoms: _439  and  _440
REMARK  187  A    between atoms: _444  and  _446
REMARK  188  A    between atoms: _446  and  _447
REMARK  189  A    between atoms: _446  and  _449
REMARK  190  A    between atoms: _449  and  _450
REMARK  191  A    between atoms: _455  and  _456
REMARK  192  A    between atoms: _458  and  _460
REMARK  193  A    between atoms: _460  and  _461
REMARK  194  A    between atoms: _463  and  _465
REMARK  195  A    between atoms: _465  and  _466
REMARK  196  A    between atoms: _465  and  _468
REMARK  197  A    between atoms: _468  and  _469
REMARK  198  A    between atoms: _472  and  _474
REMARK  199  A    between atoms: _474  and  _475
REMARK  200  A    between atoms: _474  and  _477
REMARK  201  A    between atoms: _477  and  _478
REMARK  202  A    between atoms: _483  and  _484
REMARK  203  A    between atoms: _486  and  _488
REMARK  204  A    between atoms: _488  and  _489
REMARK  205  A    between atoms: _488  and  _491
REMARK  206  A    between atoms: _491  and  _492
REMARK                            x       y       z     vdW  Elec       q    Type
REMARK                         _______ _______ _______ _____ _____    ______ ____
ROOT
ATOM      1  CA  GLU A   2       1.670  10.009  29.354  0.00  0.00    +0.149 C 
ENDROOT
BRANCH   1   3
ATOM      2  C   HIS A   1       2.574  11.842  30.673  0.00  0.00    +0.239 C 
ATOM      3  N   GLU A   2       1.942  10.674  30.620  0.00  0.00    -0.297 N 
ATOM      4  H   GLU A   2       1.634  10.224  31.505  0.00  0.00    +0.150 HD
ATOM      5  O   HIS A   1       2.967  12.439  29.672  0.00  0.00    -0.274 OA
BRANCH   2   6
ATOM      6  CA  HIS A   1       2.770  12.441  32.061  0.00  0.00    +0.151 C 
BRANCH   6   7
ATOM      7  N   HIS A   1       3.669  13.601  31.939  0.00  0.00    -0.238 NA
ATOM      8  H   HIS A   1       3.613  14.169  31.070  0.00  0.00    +0.142 HD
ENDBRANCH   6   7
BRANCH   6   9
ATOM      9  CB  HIS A   1       1.374  12.839  32.570  0.00  0.00    +0.074 C 
BRANCH   9  10
ATOM     10  CG  HIS A   1       1.366  13.482  33.918  0.00  0.00    +0.082 A 
ATOM     11  CD2 HIS A   1       1.997  13.154  35.071  0.00  0.00    +0.115 A 
ATOM     12  NE2 HIS A   1       1.631  14.086  36.012  0.00  0.00    -0.221 NA
ATOM     13  CE1 HIS A   1       0.803  14.954  35.457  0.00  0.00    +0.199 A 
ATOM     14  ND1 HIS A   1       0.626  14.612  34.193  0.00  0.00    -0.227 NA
ENDBRANCH   9  10
ENDBRANCH   6   9
ENDBRANCH   2   6
ENDBRANCH   1   3
BRANCH   1  15
ATOM     15  C   GLU A   2       0.579  10.785  28.620  0.00  0.00    +0.241 C 
ATOM     16  N   LYS A   3      -0.316  11.397  29.391  0.00  0.00    -0.298 N 
ATOM     17  H   LYS A   3      -0.235  11.311  30.424  0.00  0.00    +0.150 HD
ATOM     18  O   GLU A   2       0.548  10.826  27.388  0.00  0.00    -0.273 OA
BRANCH  16  19
ATOM     19  CA  LYS A   3      -1.407  12.184  28.830  0.00  0.00    +0.137 C 
BRANCH  19  20
ATOM     20  C   LYS A   3      -1.217  13.626  29.262  0.00  0.00    +0.227 C 
ATOM     21  O   LYS A   3      -1.937  14.525  28.829  0.00  0.00    -0.286 OA
ENDBRANCH  19  20
BRANCH  19  22
ATOM     22  CB  LYS A   3      -2.757  11.662  29.332  0.00  0.00    +0.028 C 
BRANCH  22  23
ATOM     23  CG  LYS A   3      -2.659  10.487  30.291  0.00  0.00    -0.000 C 
BRANCH  23  24
ATOM     24  CD  LYS A   3      -2.571  10.957  31.733  0.00  0.00    -0.024 C 
BRANCH  24  25
ATOM     25  CE  LYS A   3      -1.594  10.109  32.531  0.00  0.00    -0.086 C 
BRANCH  25  26
ATOM     26  NZ  LYS A   3      -2.256   8.919  33.132  0.00  0.00    +0.380 N 
ATOM     27  HZ1 LYS A   3      -3.015   9.232  33.771  0.00  0.00    -0.089 HD
ATOM     28  HZ2 LYS A   3      -1.555   8.368  33.668  0.00  0.00    -0.089 HD
ATOM     29  HZ3 LYS A   3      -2.659   8.329  32.376  0.00  0.00    -0.089 HD
ENDBRANCH  25  26
ENDBRANCH  24  25
ENDBRANCH  23  24
ENDBRANCH  22  23
ENDBRANCH  19  22
ENDBRANCH  16  19
ENDBRANCH   1  15
BRANCH   1  30
ATOM     30  CB  GLU A   2       1.205   8.576  29.605  0.00  0.00    +0.041 C 
BRANCH  30  31
ATOM     31  CG  GLU A   2       1.967   7.526  28.818  0.00  0.00    +0.116 C 
BRANCH  31  32
ATOM     32  CD  GLU A   2       1.328   6.150  28.909  0.00  0.00    +0.365 C 
ATOM     33  OE2 GLU A   2       1.554   5.453  29.925  0.00  0.00    -0.246 OA
ATOM     34  OE1 GLU A   2       0.601   5.770  27.964  0.00  0.00    -0.246 OA
ENDBRANCH  31  32
ENDBRANCH  30  31
ENDBRANCH   1  30
TORSDOF 16
REMARK  Name = ../refined-set-2016/1nfu/1nfu_pocket.pdb
REMARK  206 active torsions:
REMARK  status: ('A' for Active; 'I' for Inactive)
REMARK    1  A    between atoms: _1  and  _5
REMARK    2  A    between atoms: _5  and  _6
REMARK    3  A    between atoms: _5  and  _8
REMARK    4  A    between atoms: _8  and  _9
REMARK    5  A    between atoms: _12  and  _14
REMARK    6  A    between atoms: _14  and  _15
REMARK    7  A    between atoms: _14  and  _17
REMARK    8  A    between atoms: _20  and  _22
REMARK    9  A    between atoms: _22  and  _23
REMARK   10  A    between atoms: _22  and  _25
REMARK   11  A    between atoms: _25  and  _26
REMARK   12  A    between atoms: _32  and  _34
REMARK   13  A    between atoms: _34  and  _35
REMARK   14  A    between atoms: _34  and  _37
REMARK   15  A    between atoms: _37  and  _38
REMARK   16  A    between atoms: _43  and  _45
REMARK   17  A    between atoms: _45  and  _46
REMARK   18  A    between atoms: _45  and  _48
REMARK   19  A    between atoms: _48  and  _49
REMARK   20  A    between atoms: _49  and  _50
REMARK   21  A    between atoms: _55  and  _57
REMARK   22  A    between atoms: _57  and  _58
REMARK   23  A    between atoms: _57  and  _60
REMARK   24  A    between atoms: _60  and  _61
REMARK   25  A    between atoms: _64  and  _66
REMARK   26  A    between atoms: _66  and  _67
REMARK   27  A    between atoms: _66  and  _69
REMARK   28  A    between atoms: _69  and  _70
REMARK   29  A    between atoms: _70  and  _71
REMARK   30  A    between atoms: _71  and  _72
REMARK   31  A    between atoms: _72  and  _73
REMARK   32  A    between atoms: _77  and  _79
REMARK   33  A    between atoms: _79  and  _80
REMARK   34  A    between atoms: _79  and  _82
REMARK   35  A    between atoms: _82  and  _83
REMARK   36  A    between atoms: _83  and  _84
REMARK   37  A    between atoms: _87  and  _89
REMARK   38  A    between atoms: _89  and  _90
REMARK   39  A    between atoms: _89  and  _92
REMARK   40  A    between atoms: _92  and  _93
REMARK   41  A    between atoms: _96  and  _98
REMARK   42  A    between atoms: _98  and  _99
REMARK   43  A    between atoms: _98  and  _101
REMARK   44  A    between atoms: _101  and  _102
REMARK   45  A    between atoms: _107  and  _108
REMARK   46  A    between atoms: _110  and  _112
REMARK   47  A    between atoms: _112  and  _113
REMARK   48  A    between atoms: _112  and  _115
REMARK   49  A    between atoms: _115  and  _116
REMARK   50  A    between atoms: _119  and  _121
REMARK   51  A    between atoms: _121  and  _122
REMARK   52  A    between atoms: _121  and  _124
REMARK   53  A    between atoms: _127  and  _129
REMARK   54  A    between atoms: _129  and  _130
REMARK   55  A    between atoms: _129  and  _132
REMARK   56  A    between atoms: _132  and  _133
REMARK   57  A    between atoms: _133  and  _134
REMARK   58  A    between atoms: _134  and  _135
REMARK   59  A    between atoms: _144  and  _146
REMARK   60  A    between atoms: _146  and  _147
REMARK   61  A    between atoms: _146  and  _149
REMARK   62  A    between atoms: _149  and  _150
REMARK   63  A    between atoms: _155  and  _157
REMARK   64  A    between atoms: _157  and  _158
REMARK   65  A    between atoms: _157  and  _160
REMARK   66  A    between atoms: _160  and  _161
REMARK   67  A    between atoms: _161  and  _162
REMARK   68  A    between atoms: _165  and  _167
REMARK   69  A    between atoms: _167  and  _168
REMARK   70  A    between atoms: _167  and  _170
REMARK   71  A    between atoms: _170  and  _171
REMARK   72  A    between atoms: _171  and  _172
REMARK   73  A    between atoms: _172  and  _173
REMARK   74  A    between atoms: _173  and  _174
REMARK   75  A    between atoms: _178  and  _180
REMARK   76  A    between atoms: _180  and  _181
REMARK   77  A    between atoms: _180  and  _183
REMARK   78  A    between atoms: _186  and  _188
REMARK   79  A    between atoms: _188  and  _189
REMARK   80  A    between atoms: _188  and  _191
REMARK   81  A    between atoms: _191  and  _192
REMARK   82  A    between atoms: _194  and  _196
REMARK   83  A    between atoms: _196  and  _197
REMARK   84  A    between atoms: _196  and  _199
REMARK   85  A    between atoms: _199  and  _200
REMARK   86  A    between atoms: _202  and  _204
REMARK   87  A    between atoms: _204  and  _205
REMARK   88  A    between atoms: _204  and  _207
REMARK   89  A    between atoms: _207  and  _208
REMARK   90  A    between atoms: _214  and  _216
REMARK   91  A    between atoms: _216  and  _217
REMARK   92  A    between atoms: _216  and  _219
REMARK   93  A    between atoms: _219  and  _220
REMARK   94  A    between atoms: _223  and  _225
REMARK   95  A    between atoms: _225  and  _226
REMARK   96  A    between atoms: _225  and  _228
REMARK   97  A    between atoms: _228  and  _229
REMARK   98  A    between atoms: _235  and  _237
REMARK   99  A    between atoms: _237  and  _238
REMARK  100  A    between atoms: _237  and  _240
REMARK  101  A    between atoms: _242  and  _244
REMARK  102  A    between atoms: _244  and  _245
REMARK  103  A    between atoms: _248  and  _250
REMARK  104  A    between atoms: _250  and  _251
REMARK  105  A    between atoms: _253  and  _255
REMARK  106  A    between atoms: _255  and  _256
REMARK  107  A    between atoms: _255  and  _258
REMARK  108  A    between atoms: _258  and  _259
REMARK  109  A    between atoms: _259  and  _260
REMARK  110  A    between atoms: _263  and  _265
REMARK  111  A    between atoms: _265  and  _266
REMARK  112  A    between atoms: _265  and  _268
REMARK  113  A    between atoms: _268  and  _269
REMARK  114  A    between atoms: _272  and  _274
REMARK  115  A    between atoms: _274  and  _275
REMARK  116  A    between atoms: _278  and  _280
REMARK  117  A    between atoms: _280  and  _281
REMARK  118  A    between atoms: _280  and  _283
REMARK  119  A    between atoms: _283  and  _284
REMARK  120  A    between atoms: _284  and  _407
REMARK  121  A    between atoms: _285  and  _287
REMARK  122  A    between atoms: _287  and  _288
REMARK  123  A    between atoms: _287  and  _290
REMARK  124  A    between atoms: _290  and  _291
REMARK  125  A    between atoms: _291  and  _292
REMARK  126  A    between atoms: _297  and  _299
REMARK  127  A    between atoms: _299  and  _300
REMARK  128  A    between atoms: _302  and  _304
REMARK  129  A    between atoms: _304  and  _305
REMARK  130  A    between atoms: _304  and  _307
REMARK  131  A    between atoms: _307  and  _308
REMARK  132  A    between atoms: _311  and  _313
REMARK  133  A    between atoms: _313  and  _314
REMARK  134  A    between atoms: _313  and  _316
REMARK  135  A    between atoms: _316  and  _317
REMARK  136  A    between atoms: _319  and  _321
REMARK  137  A    between atoms: _321  and  _322
REMARK  138  A    between atoms: _324  and  _326
REMARK  139  A    between atoms: _326  and  _327
REMARK  140  A    between atoms: _329  and  _331
REMARK  141  A    between atoms: _331  and  _332
REMARK  142  A    between atoms: _331  and  _334
REMARK  143  A    between atoms: _334  and  _335
REMARK  144  A    between atoms: _340  and  _342
REMARK  145  A    between atoms: _342  and  _343
REMARK  146  A    between atoms: _342  and  _345
REMARK  147  A    between atoms: _345  and  _346
REMARK  148  A    between atoms: _349  and  _351
REMARK  149  A    between atoms: _351  and  _352
REMARK  150  A    between atoms: _351  and  _354
REMARK  151  A    between atoms: _357  and  _359
REMARK  152  A    between atoms: _359  and  _360
REMARK  153  A    between atoms: _359  and  _362
REMARK  154  A    between atoms: _362  and  _363
REMARK  155  A    between atoms: _365  and  _367
REMARK  156  A    between atoms: _367  and  _368
REMARK  157  A    between atoms: _367  and  _370
REMARK  158  A    between atoms: _370  and  _371
REMARK  159  A    between atoms: _381  and  _383
REMARK  160  A    between atoms: _383  and  _384
REMARK  161  A    between atoms: _386  and  _388
REMARK  162  A    between atoms: _388  and  _389
REMARK  163  A    between atoms: _388  and  _391
REMARK  164  A    between atoms: _391  and  _392
REMARK  165  A    between atoms: _392  and  _393
REMARK  166  A    between atoms: _396  and  _398
REMARK  167  A    between atoms: _398  and  _399
REMARK  168  A    between atoms: _401  and  _403
REMARK  169  A    between atoms: _403  and  _404
REMARK  170  A    between atoms: _403  and  _406
REMARK  171  A    between atoms: _406  and  _407
REMARK  172  A    between atoms: _408  and  _410
REMARK  173  A    between atoms: _410  and  _411
REMARK  174  A    between atoms: _414  and  _416
REMARK  175  A    between atoms: _416  and  _417
REMARK  176  A    between atoms: _416  and  _419
REMARK  177  A    between atoms: _419  and  _420
REMARK  178  A    between atoms: _420  and  _421
REMARK  179  A    between atoms: _421  and  _422
REMARK  180  A    between atoms: _431  and  _433
REMARK  181  A    between atoms: _433  and  _434
REMARK  182  A    between atoms: _433  and  _436
REMARK  183  A    between atoms: _436  and  _437
REMARK  184  A    between atoms: _437  and  _438
REMARK  185  A    between atoms: _438  and  _439
REMARK  186  A    between atoms: _439  and  _440
REMARK  187  A    between atoms: _444  and  _446
REMARK  188  A    between atoms: _446  and  _447
REMARK  189  A    between atoms: _446  and  _449
REMARK  190  A    between atoms: _449  and  _450
REMARK  191  A    between atoms: _455  and  _456
REMARK  192  A    between atoms: _458  and  _460
REMARK  193  A    between atoms: _460  and  _461
REMARK  194  A    between atoms: _463  and  _465
REMARK  195  A    between atoms: _465  and  _466
REMARK  196  A    between atoms: _465  and  _468
REMARK  197  A    between atoms: _468  and  _469
REMARK  198  A    between atoms: _472  and  _474
REMARK  199  A    between atoms: _474  and  _475
REMARK  200  A    between atoms: _474  and  _477
REMARK  201  A    between atoms: _477  and  _478
REMARK  202  A    between atoms: _483  and  _484
REMARK  203  A    between atoms: _486  and  _488
REMARK  204  A    between atoms: _488  and  _489
REMARK  205  A    between atoms: _488  and  _491
REMARK  206  A    between atoms: _491  and  _492
REMARK                            x       y       z     vdW  Elec       q    Type
REMARK                         _______ _______ _______ _____ _____    ______ ____
ROOT
ATOM      1  CA  VAL A   1      18.089   6.863  34.827  0.00  0.00    +0.133 C 
ENDROOT
BRANCH   1   2
ATOM      2  CB  VAL A   1      17.480   6.897  33.409  0.00  0.00    +0.023 C 
ATOM      3  CG2 VAL A   1      16.089   7.497  33.466  0.00  0.00    +0.002 C 
ATOM      4  CG1 VAL A   1      18.384   7.683  32.454  0.00  0.00    +0.002 C 
ENDBRANCH   1   2
BRANCH   1   5
ATOM      5  N   VAL A   1      18.615   8.168  35.224  0.00  0.00    -0.239 NA
ATOM      6  H   VAL A   1      19.315   8.641  34.617  0.00  0.00    +0.142 HD
ENDBRANCH   1   5
BRANCH   1   7
ATOM      7  C   VAL A   1      19.163   5.780  34.861  0.00  0.00    +0.224 C 
ATOM      8  O   VAL A   1      20.198   5.880  34.199  0.00  0.00    -0.287 OA
ENDBRANCH   1   7
TORSDOF 3
REMARK  Name = ../refined-set-2016/1nfu/1nfu_pocket.pdb
REMARK  206 active torsions:
REMARK  status: ('A' for Active; 'I' for Inactive)
REMARK    1  A    between atoms: _1  and  _5
REMARK    2  A    between atoms: _5  and  _6
REMARK    3  A    between atoms: _5  and  _8
REMARK    4  A    between atoms: _8  and  _9
REMARK    5  A    between atoms: _12  and  _14
REMARK    6  A    between atoms: _14  and  _15
REMARK    7  A    between atoms: _14  and  _17
REMARK    8  A    between atoms: _20  and  _22
REMARK    9  A    between atoms: _22  and  _23
REMARK   10  A    between atoms: _22  and  _25
REMARK   11  A    between atoms: _25  and  _26
REMARK   12  A    between atoms: _32  and  _34
REMARK   13  A    between atoms: _34  and  _35
REMARK   14  A    between atoms: _34  and  _37
REMARK   15  A    between atoms: _37  and  _38
REMARK   16  A    between atoms: _43  and  _45
REMARK   17  A    between atoms: _45  and  _46
REMARK   18  A    between atoms: _45  and  _48
REMARK   19  A    between atoms: _48  and  _49
REMARK   20  A    between atoms: _49  and  _50
REMARK   21  A    between atoms: _55  and  _57
REMARK   22  A    between atoms: _57  and  _58
REMARK   23  A    between atoms: _57  and  _60
REMARK   24  A    between atoms: _60  and  _61
REMARK   25  A    between atoms: _64  and  _66
REMARK   26  A    between atoms: _66  and  _67
REMARK   27  A    between atoms: _66  and  _69
REMARK   28  A    between atoms: _69  and  _70
REMARK   29  A    between atoms: _70  and  _71
REMARK   30  A    between atoms: _71  and  _72
REMARK   31  A    between atoms: _72  and  _73
REMARK   32  A    between atoms: _77  and  _79
REMARK   33  A    between atoms: _79  and  _80
REMARK   34  A    between atoms: _79  and  _82
REMARK   35  A    between atoms: _82  and  _83
REMARK   36  A    between atoms: _83  and  _84
REMARK   37  A    between atoms: _87  and  _89
REMARK   38  A    between atoms: _89  and  _90
REMARK   39  A    between atoms: _89  and  _92
REMARK   40  A    between atoms: _92  and  _93
REMARK   41  A    between atoms: _96  and  _98
REMARK   42  A    between atoms: _98  and  _99
REMARK   43  A    between atoms: _98  and  _101
REMARK   44  A    between atoms: _101  and  _102
REMARK   45  A    between atoms: _107  and  _108
REMARK   46  A    between atoms: _110  and  _112
REMARK   47  A    between atoms: _112  and  _113
REMARK   48  A    between atoms: _112  and  _115
REMARK   49  A    between atoms: _115  and  _116
REMARK   50  A    between atoms: _119  and  _121
REMARK   51  A    between atoms: _121  and  _122
REMARK   52  A    between atoms: _121  and  _124
REMARK   53  A    between atoms: _127  and  _129
REMARK   54  A    between atoms: _129  and  _130
REMARK   55  A    between atoms: _129  and  _132
REMARK   56  A    between atoms: _132  and  _133
REMARK   57  A    between atoms: _133  and  _134
REMARK   58  A    between atoms: _134  and  _135
REMARK   59  A    between atoms: _144  and  _146
REMARK   60  A    between atoms: _146  and  _147
REMARK   61  A    between atoms: _146  and  _149
REMARK   62  A    between atoms: _149  and  _150
REMARK   63  A    between atoms: _155  and  _157
REMARK   64  A    between atoms: _157  and  _158
REMARK   65  A    between atoms: _157  and  _160
REMARK   66  A    between atoms: _160  and  _161
REMARK   67  A    between atoms: _161  and  _162
REMARK   68  A    between atoms: _165  and  _167
REMARK   69  A    between atoms: _167  and  _168
REMARK   70  A    between atoms: _167  and  _170
REMARK   71  A    between atoms: _170  and  _171
REMARK   72  A    between atoms: _171  and  _172
REMARK   73  A    between atoms: _172  and  _173
REMARK   74  A    between atoms: _173  and  _174
REMARK   75  A    between atoms: _178  and  _180
REMARK   76  A    between atoms: _180  and  _181
REMARK   77  A    between atoms: _180  and  _183
REMARK   78  A    between atoms: _186  and  _188
REMARK   79  A    between atoms: _188  and  _189
REMARK   80  A    between atoms: _188  and  _191
REMARK   81  A    between atoms: _191  and  _192
REMARK   82  A    between atoms: _194  and  _196
REMARK   83  A    between atoms: _196  and  _197
REMARK   84  A    between atoms: _196  and  _199
REMARK   85  A    between atoms: _199  and  _200
REMARK   86  A    between atoms: _202  and  _204
REMARK   87  A    between atoms: _204  and  _205
REMARK   88  A    between atoms: _204  and  _207
REMARK   89  A    between atoms: _207  and  _208
REMARK   90  A    between atoms: _214  and  _216
REMARK   91  A    between atoms: _216  and  _217
REMARK   92  A    between atoms: _216  and  _219
REMARK   93  A    between atoms: _219  and  _220
REMARK   94  A    between atoms: _223  and  _225
REMARK   95  A    between atoms: _225  and  _226
REMARK   96  A    between atoms: _225  and  _228
REMARK   97  A    between atoms: _228  and  _229
REMARK   98  A    between atoms: _235  and  _237
REMARK   99  A    between atoms: _237  and  _238
REMARK  100  A    between atoms: _237  and  _240
REMARK  101  A    between atoms: _242  and  _244
REMARK  102  A    between atoms: _244  and  _245
REMARK  103  A    between atoms: _248  and  _250
REMARK  104  A    between atoms: _250  and  _251
REMARK  105  A    between atoms: _253  and  _255
REMARK  106  A    between atoms: _255  and  _256
REMARK  107  A    between atoms: _255  and  _258
REMARK  108  A    between atoms: _258  and  _259
REMARK  109  A    between atoms: _259  and  _260
REMARK  110  A    between atoms: _263  and  _265
REMARK  111  A    between atoms: _265  and  _266
REMARK  112  A    between atoms: _265  and  _268
REMARK  113  A    between atoms: _268  and  _269
REMARK  114  A    between atoms: _272  and  _274
REMARK  115  A    between atoms: _274  and  _275
REMARK  116  A    between atoms: _278  and  _280
REMARK  117  A    between atoms: _280  and  _281
REMARK  118  A    between atoms: _280  and  _283
REMARK  119  A    between atoms: _283  and  _284
REMARK  120  A    between atoms: _284  and  _407
REMARK  121  A    between atoms: _285  and  _287
REMARK  122  A    between atoms: _287  and  _288
REMARK  123  A    between atoms: _287  and  _290
REMARK  124  A    between atoms: _290  and  _291
REMARK  125  A    between atoms: _291  and  _292
REMARK  126  A    between atoms: _297  and  _299
REMARK  127  A    between atoms: _299  and  _300
REMARK  128  A    between atoms: _302  and  _304
REMARK  129  A    between atoms: _304  and  _305
REMARK  130  A    between atoms: _304  and  _307
REMARK  131  A    between atoms: _307  and  _308
REMARK  132  A    between atoms: _311  and  _313
REMARK  133  A    between atoms: _313  and  _314
REMARK  134  A    between atoms: _313  and  _316
REMARK  135  A    between atoms: _316  and  _317
REMARK  136  A    between atoms: _319  and  _321
REMARK  137  A    between atoms: _321  and  _322
REMARK  138  A    between atoms: _324  and  _326
REMARK  139  A    between atoms: _326  and  _327
REMARK  140  A    between atoms: _329  and  _331
REMARK  141  A    between atoms: _331  and  _332
REMARK  142  A    between atoms: _331  and  _334
REMARK  143  A    between atoms: _334  and  _335
REMARK  144  A    between atoms: _340  and  _342
REMARK  145  A    between atoms: _342  and  _343
REMARK  146  A    between atoms: _342  and  _345
REMARK  147  A    between atoms: _345  and  _346
REMARK  148  A    between atoms: _349  and  _351
REMARK  149  A    between atoms: _351  and  _352
REMARK  150  A    between atoms: _351  and  _354
REMARK  151  A    between atoms: _357  and  _359
REMARK  152  A    between atoms: _359  and  _360
REMARK  153  A    between atoms: _359  and  _362
REMARK  154  A    between atoms: _362  and  _363
REMARK  155  A    between atoms: _365  and  _367
REMARK  156  A    between atoms: _367  and  _368
REMARK  157  A    between atoms: _367  and  _370
REMARK  158  A    between atoms: _370  and  _371
REMARK  159  A    between atoms: _381  and  _383
REMARK  160  A    between atoms: _383  and  _384
REMARK  161  A    between atoms: _386  and  _388
REMARK  162  A    between atoms: _388  and  _389
REMARK  163  A    between atoms: _388  and  _391
REMARK  164  A    between atoms: _391  and  _392
REMARK  165  A    between atoms: _392  and  _393
REMARK  166  A    between atoms: _396  and  _398
REMARK  167  A    between atoms: _398  and  _399
REMARK  168  A    between atoms: _401  and  _403
REMARK  169  A    between atoms: _403  and  _404
REMARK  170  A    between atoms: _403  and  _406
REMARK  171  A    between atoms: _406  and  _407
REMARK  172  A    between atoms: _408  and  _410
REMARK  173  A    between atoms: _410  and  _411
REMARK  174  A    between atoms: _414  and  _416
REMARK  175  A    between atoms: _416  and  _417
REMARK  176  A    between atoms: _416  and  _419
REMARK  177  A    between atoms: _419  and  _420
REMARK  178  A    between atoms: _420  and  _421
REMARK  179  A    between atoms: _421  and  _422
REMARK  180  A    between atoms: _431  and  _433
REMARK  181  A    between atoms: _433  and  _434
REMARK  182  A    between atoms: _433  and  _436
REMARK  183  A    between atoms: _436  and  _437
REMARK  184  A    between atoms: _437  and  _438
REMARK  185  A    between atoms: _438  and  _439
REMARK  186  A    between atoms: _439  and  _440
REMARK  187  A    between atoms: _444  and  _446
REMARK  188  A    between atoms: _446  and  _447
REMARK  189  A    between atoms: _446  and  _449
REMARK  190  A    between atoms: _449  and  _450
REMARK  191  A    between atoms: _455  and  _456
REMARK  192  A    between atoms: _458  and  _460
REMARK  193  A    between atoms: _460  and  _461
REMARK  194  A    between atoms: _463  and  _465
REMARK  195  A    between atoms: _465  and  _466
REMARK  196  A    between atoms: _465  and  _468
REMARK  197  A    between atoms: _468  and  _469
REMARK  198  A    between atoms: _472  and  _474
REMARK  199  A    between atoms: _474  and  _475
REMARK  200  A    between atoms: _474  and  _477
REMARK  201  A    between atoms: _477  and  _478
REMARK  202  A    between atoms: _483  and  _484
REMARK  203  A    between atoms: _486  and  _488
REMARK  204  A    between atoms: _488  and  _489
REMARK  205  A    between atoms: _488  and  _491
REMARK  206  A    between atoms: _491  and  _492
REMARK                            x       y       z     vdW  Elec       q    Type
REMARK                         _______ _______ _______ _____ _____    ______ ____
ROOT
ATOM      1  CA  PHE A   3       9.473  -4.484  19.988  0.00  0.00    +0.153 C 
ENDROOT
BRANCH   1   3
ATOM      2  C   SER A   2       7.737  -5.513  21.377  0.00  0.00    +0.243 C 
ATOM      3  N   PHE A   3       8.889  -4.851  21.273  0.00  0.00    -0.297 N 
ATOM      4  H   PHE A   3       9.392  -4.585  22.144  0.00  0.00    +0.150 HD
ATOM      5  O   SER A   2       7.065  -5.864  20.402  0.00  0.00    -0.273 OA
BRANCH   2   6
ATOM      6  CA  SER A   2       7.276  -5.806  22.800  0.00  0.00    +0.178 C 
BRANCH   6   9
ATOM      7  C   SER A   1       9.319  -5.724  24.147  0.00  0.00    +0.241 C 
ATOM      8  O   SER A   1       9.660  -6.861  23.826  0.00  0.00    -0.274 OA
ATOM      9  N   SER A   2       8.200  -5.148  23.718  0.00  0.00    -0.295 N 
ATOM     10  H   SER A   2       7.974  -4.189  24.050  0.00  0.00    +0.150 HD
BRANCH   7  11
ATOM     11  CA  SER A   1      10.182  -4.876  25.068  0.00  0.00    +0.174 C 
BRANCH  11  12
ATOM     12  N   SER A   1      10.729  -5.536  26.247  0.00  0.00    -0.236 NA
ATOM     13  H   SER A   1      11.715  -5.867  26.237  0.00  0.00    +0.142 HD
ENDBRANCH  11  12
BRANCH  11  14
ATOM     14  CB  SER A   1      11.321  -4.256  24.250  0.00  0.00    +0.163 C 
BRANCH  14  15
ATOM     15  OG  SER A   1      10.816  -3.353  23.281  0.00  0.00    -0.380 OA
ATOM     16  H   SER A   1      10.319  -2.627  23.735  0.00  0.00    +0.211 HD
ENDBRANCH  14  15
ENDBRANCH  11  14
ENDBRANCH   7  11
ENDBRANCH   6   9
BRANCH   6  17
ATOM     17  CB  SER A   2       5.862  -5.260  22.992  0.00  0.00    +0.166 C 
BRANCH  17  18
ATOM     18  OG  SER A   2       5.496  -5.280  24.360  0.00  0.00    -0.380 OA
ATOM     19  H   SER A   2       4.578  -4.923  24.460  0.00  0.00    +0.211 HD
ENDBRANCH  17  18
ENDBRANCH   6  17
ENDBRANCH   2   6
ENDBRANCH   1   3
BRANCH   1  20
ATOM     20  C   PHE A   3      10.979  -4.738  20.011  0.00  0.00    +0.241 C 
ATOM     21  O   PHE A   3      11.613  -4.675  21.064  0.00  0.00    -0.273 OA
ATOM     22  N   ILE A   4      11.537  -5.025  18.840  0.00  0.00    -0.298 N 
ATOM     23  H   ILE A   4      10.934  -5.045  17.993  0.00  0.00    +0.150 HD
BRANCH  22  24
ATOM     24  CA  ILE A   4      12.958  -5.313  18.690  0.00  0.00    +0.137 C 
BRANCH  24  25
ATOM     25  C   ILE A   4      13.888  -4.211  19.199  0.00  0.00    +0.227 C 
ATOM     26  O   ILE A   4      13.671  -3.027  18.935  0.00  0.00    -0.286 OA
ENDBRANCH  24  25
BRANCH  24  27
ATOM     27  CB  ILE A   4      13.305  -5.586  17.209  0.00  0.00    +0.026 C 
ATOM     28  CG2 ILE A   4      12.945  -4.370  16.365  0.00  0.00    +0.002 C 
BRANCH  27  29
ATOM     29  CG1 ILE A   4      14.795  -5.922  17.071  0.00  0.00    +0.002 C 
ATOM     30  CD1 ILE A   4      15.277  -6.099  15.626  0.00  0.00    +0.000 C 
ENDBRANCH  27  29
ENDBRANCH  24  27
ENDBRANCH  22  24
ENDBRANCH   1  20
BRANCH   1  31
ATOM     31  CB  PHE A   3       9.184  -3.006  19.685  0.00  0.00    +0.055 C 
BRANCH  31  32
ATOM     32  CG  PHE A   3       7.722  -2.652  19.741  0.00  0.00    -0.020 A 
ATOM     33  CD2 PHE A   3       7.119  -2.312  20.952  0.00  0.00    -0.004 A 
ATOM     34  CE2 PHE A   3       5.752  -2.017  21.023  0.00  0.00    -0.000 A 
ATOM     35  CZ  PHE A   3       4.975  -2.061  19.870  0.00  0.00    -0.000 A 
ATOM     36  CE1 PHE A   3       5.568  -2.397  18.647  0.00  0.00    -0.000 A 
ATOM     37  CD1 PHE A   3       6.940  -2.691  18.591  0.00  0.00    -0.004 A 
ENDBRANCH  31  32
ENDBRANCH   1  31
TORSDOF 16
REMARK  Name = ../refined-set-2016/1nfu/1nfu_pocket.pdb
REMARK  206 active torsions:
REMARK  status: ('A' for Active; 'I' for Inactive)
REMARK    1  A    between atoms: _1  and  _5
REMARK    2  A    between atoms: _5  and  _6
REMARK    3  A    between atoms: _5  and  _8
REMARK    4  A    between atoms: _8  and  _9
REMARK    5  A    between atoms: _12  and  _14
REMARK    6  A    between atoms: _14  and  _15
REMARK    7  A    between atoms: _14  and  _17
REMARK    8  A    between atoms: _20  and  _22
REMARK    9  A    between atoms: _22  and  _23
REMARK   10  A    between atoms: _22  and  _25
REMARK   11  A    between atoms: _25  and  _26
REMARK   12  A    between atoms: _32  and  _34
REMARK   13  A    between atoms: _34  and  _35
REMARK   14  A    between atoms: _34  and  _37
REMARK   15  A    between atoms: _37  and  _38
REMARK   16  A    between atoms: _43  and  _45
REMARK   17  A    between atoms: _45  and  _46
REMARK   18  A    between atoms: _45  and  _48
REMARK   19  A    between atoms: _48  and  _49
REMARK   20  A    between atoms: _49  and  _50
REMARK   21  A    between atoms: _55  and  _57
REMARK   22  A    between atoms: _57  and  _58
REMARK   23  A    between atoms: _57  and  _60
REMARK   24  A    between atoms: _60  and  _61
REMARK   25  A    between atoms: _64  and  _66
REMARK   26  A    between atoms: _66  and  _67
REMARK   27  A    between atoms: _66  and  _69
REMARK   28  A    between atoms: _69  and  _70
REMARK   29  A    between atoms: _70  and  _71
REMARK   30  A    between atoms: _71  and  _72
REMARK   31  A    between atoms: _72  and  _73
REMARK   32  A    between atoms: _77  and  _79
REMARK   33  A    between atoms: _79  and  _80
REMARK   34  A    between atoms: _79  and  _82
REMARK   35  A    between atoms: _82  and  _83
REMARK   36  A    between atoms: _83  and  _84
REMARK   37  A    between atoms: _87  and  _89
REMARK   38  A    between atoms: _89  and  _90
REMARK   39  A    between atoms: _89  and  _92
REMARK   40  A    between atoms: _92  and  _93
REMARK   41  A    between atoms: _96  and  _98
REMARK   42  A    between atoms: _98  and  _99
REMARK   43  A    between atoms: _98  and  _101
REMARK   44  A    between atoms: _101  and  _102
REMARK   45  A    between atoms: _107  and  _108
REMARK   46  A    between atoms: _110  and  _112
REMARK   47  A    between atoms: _112  and  _113
REMARK   48  A    between atoms: _112  and  _115
REMARK   49  A    between atoms: _115  and  _116
REMARK   50  A    between atoms: _119  and  _121
REMARK   51  A    between atoms: _121  and  _122
REMARK   52  A    between atoms: _121  and  _124
REMARK   53  A    between atoms: _127  and  _129
REMARK   54  A    between atoms: _129  and  _130
REMARK   55  A    between atoms: _129  and  _132
REMARK   56  A    between atoms: _132  and  _133
REMARK   57  A    between atoms: _133  and  _134
REMARK   58  A    between atoms: _134  and  _135
REMARK   59  A    between atoms: _144  and  _146
REMARK   60  A    between atoms: _146  and  _147
REMARK   61  A    between atoms: _146  and  _149
REMARK   62  A    between atoms: _149  and  _150
REMARK   63  A    between atoms: _155  and  _157
REMARK   64  A    between atoms: _157  and  _158
REMARK   65  A    between atoms: _157  and  _160
REMARK   66  A    between atoms: _160  and  _161
REMARK   67  A    between atoms: _161  and  _162
REMARK   68  A    between atoms: _165  and  _167
REMARK   69  A    between atoms: _167  and  _168
REMARK   70  A    between atoms: _167  and  _170
REMARK   71  A    between atoms: _170  and  _171
REMARK   72  A    between atoms: _171  and  _172
REMARK   73  A    between atoms: _172  and  _173
REMARK   74  A    between atoms: _173  and  _174
REMARK   75  A    between atoms: _178  and  _180
REMARK   76  A    between atoms: _180  and  _181
REMARK   77  A    between atoms: _180  and  _183
REMARK   78  A    between atoms: _186  and  _188
REMARK   79  A    between atoms: _188  and  _189
REMARK   80  A    between atoms: _188  and  _191
REMARK   81  A    between atoms: _191  and  _192
REMARK   82  A    between atoms: _194  and  _196
REMARK   83  A    between atoms: _196  and  _197
REMARK   84  A    between atoms: _196  and  _199
REMARK   85  A    between atoms: _199  and  _200
REMARK   86  A    between atoms: _202  and  _204
REMARK   87  A    between atoms: _204  and  _205
REMARK   88  A    between atoms: _204  and  _207
REMARK   89  A    between atoms: _207  and  _208
REMARK   90  A    between atoms: _214  and  _216
REMARK   91  A    between atoms: _216  and  _217
REMARK   92  A    between atoms: _216  and  _219
REMARK   93  A    between atoms: _219  and  _220
REMARK   94  A    between atoms: _223  and  _225
REMARK   95  A    between atoms: _225  and  _226
REMARK   96  A    between atoms: _225  and  _228
REMARK   97  A    between atoms: _228  and  _229
REMARK   98  A    between atoms: _235  and  _237
REMARK   99  A    between atoms: _237  and  _238
REMARK  100  A    between atoms: _237  and  _240
REMARK  101  A    between atoms: _242  and  _244
REMARK  102  A    between atoms: _244  and  _245
REMARK  103  A    between atoms: _248  and  _250
REMARK  104  A    between atoms: _250  and  _251
REMARK  105  A    between atoms: _253  and  _255
REMARK  106  A    between atoms: _255  and  _256
REMARK  107  A    between atoms: _255  and  _258
REMARK  108  A    between atoms: _258  and  _259
REMARK  109  A    between atoms: _259  and  _260
REMARK  110  A    between atoms: _263  and  _265
REMARK  111  A    between atoms: _265  and  _266
REMARK  112  A    between atoms: _265  and  _268
REMARK  113  A    between atoms: _268  and  _269
REMARK  114  A    between atoms: _272  and  _274
REMARK  115  A    between atoms: _274  and  _275
REMARK  116  A    between atoms: _278  and  _280
REMARK  117  A    between atoms: _280  and  _281
REMARK  118  A    between atoms: _280  and  _283
REMARK  119  A    between atoms: _283  and  _284
REMARK  120  A    between atoms: _284  and  _407
REMARK  121  A    between atoms: _285  and  _287
REMARK  122  A    between atoms: _287  and  _288
REMARK  123  A    between atoms: _287  and  _290
REMARK  124  A    between atoms: _290  and  _291
REMARK  125  A    between atoms: _291  and  _292
REMARK  126  A    between atoms: _297  and  _299
REMARK  127  A    between atoms: _299  and  _300
REMARK  128  A    between atoms: _302  and  _304
REMARK  129  A    between atoms: _304  and  _305
REMARK  130  A    between atoms: _304  and  _307
REMARK  131  A    between atoms: _307  and  _308
REMARK  132  A    between atoms: _311  and  _313
REMARK  133  A    between atoms: _313  and  _314
REMARK  134  A    between atoms: _313  and  _316
REMARK  135  A    between atoms: _316  and  _317
REMARK  136  A    between atoms: _319  and  _321
REMARK  137  A    between atoms: _321  and  _322
REMARK  138  A    between atoms: _324  and  _326
REMARK  139  A    between atoms: _326  and  _327
REMARK  140  A    between atoms: _329  and  _331
REMARK  141  A    between atoms: _331  and  _332
REMARK  142  A    between atoms: _331  and  _334
REMARK  143  A    between atoms: _334  and  _335
REMARK  144  A    between atoms: _340  and  _342
REMARK  145  A    between atoms: _342  and  _343
REMARK  146  A    between atoms: _342  and  _345
REMARK  147  A    between atoms: _345  and  _346
REMARK  148  A    between atoms: _349  and  _351
REMARK  149  A    between atoms: _351  and  _352
REMARK  150  A    between atoms: _351  and  _354
REMARK  151  A    between atoms: _357  and  _359
REMARK  152  A    between atoms: _359  and  _360
REMARK  153  A    between atoms: _359  and  _362
REMARK  154  A    between atoms: _362  and  _363
REMARK  155  A    between atoms: _365  and  _367
REMARK  156  A    between atoms: _367  and  _368
REMARK  157  A    between atoms: _367  and  _370
REMARK  158  A    between atoms: _370  and  _371
REMARK  159  A    between atoms: _381  and  _383
REMARK  160  A    between atoms: _383  and  _384
REMARK  161  A    between atoms: _386  and  _388
REMARK  162  A    between atoms: _388  and  _389
REMARK  163  A    between atoms: _388  and  _391
REMARK  164  A    between atoms: _391  and  _392
REMARK  165  A    between atoms: _392  and  _393
REMARK  166  A    between atoms: _396  and  _398
REMARK  167  A    between atoms: _398  and  _399
REMARK  168  A    between atoms: _401  and  _403
REMARK  169  A    between atoms: _403  and  _404
REMARK  170  A    between atoms: _403  and  _406
REMARK  171  A    between atoms: _406  and  _407
REMARK  172  A    between atoms: _408  and  _410
REMARK  173  A    between atoms: _410  and  _411
REMARK  174  A    between atoms: _414  and  _416
REMARK  175  A    between atoms: _416  and  _417
REMARK  176  A    between atoms: _416  and  _419
REMARK  177  A    between atoms: _419  and  _420
REMARK  178  A    between atoms: _420  and  _421
REMARK  179  A    between atoms: _421  and  _422
REMARK  180  A    between atoms: _431  and  _433
REMARK  181  A    between atoms: _433  and  _434
REMARK  182  A    between atoms: _433  and  _436
REMARK  183  A    between atoms: _436  and  _437
REMARK  184  A    between atoms: _437  and  _438
REMARK  185  A    between atoms: _438  and  _439
REMARK  186  A    between atoms: _439  and  _440
REMARK  187  A    between atoms: _444  and  _446
REMARK  188  A    between atoms: _446  and  _447
REMARK  189  A    between atoms: _446  and  _449
REMARK  190  A    between atoms: _449  and  _450
REMARK  191  A    between atoms: _455  and  _456
REMARK  192  A    between atoms: _458  and  _460
REMARK  193  A    between atoms: _460  and  _461
REMARK  194  A    between atoms: _463  and  _465
REMARK  195  A    between atoms: _465  and  _466
REMARK  196  A    between atoms: _465  and  _468
REMARK  197  A    between atoms: _468  and  _469
REMARK  198  A    between atoms: _472  and  _474
REMARK  199  A    between atoms: _474  and  _475
REMARK  200  A    between atoms: _474  and  _477
REMARK  201  A    between atoms: _477  and  _478
REMARK  202  A    between atoms: _483  and  _484
REMARK  203  A    between atoms: _486  and  _488
REMARK  204  A    between atoms: _488  and  _489
REMARK  205  A    between atoms: _488  and  _491
REMARK  206  A    between atoms: _491  and  _492
REMARK                            x       y       z     vdW  Elec       q    Type
REMARK                         _______ _______ _______ _____ _____    ______ ____
ROOT
ATOM      1  CA  CYS A   2      17.767   0.834  27.608  0.00  0.00    +0.160 C 
ENDROOT
BRANCH   1   3
ATOM      2  C   PHE A   1      19.043   0.943  25.565  0.00  0.00    +0.239 C 
ATOM      3  N   CYS A   2      18.872   0.406  26.764  0.00  0.00    -0.296 N 
ATOM      4  H   CYS A   2      19.530  -0.324  27.103  0.00  0.00    +0.150 HD
ATOM      5  O   PHE A   1      18.305   1.815  25.117  0.00  0.00    -0.274 OA
BRANCH   2   6
ATOM      6  CA  PHE A   1      20.172   0.419  24.722  0.00  0.00    +0.149 C 
BRANCH   6   7
ATOM      7  N   PHE A   1      19.879   0.932  23.407  0.00  0.00    -0.238 NA
ATOM      8  H   PHE A   1      19.333   1.813  23.318  0.00  0.00    +0.142 HD
ENDBRANCH   6   7
BRANCH   6   9
ATOM      9  CB  PHE A   1      21.555   0.865  25.209  0.00  0.00    +0.053 C 
BRANCH   9  10
ATOM     10  CG  PHE A   1      21.658   2.317  25.564  0.00  0.00    -0.020 A 
ATOM     11  CD2 PHE A   1      21.336   2.760  26.845  0.00  0.00    -0.004 A 
ATOM     12  CE2 PHE A   1      21.505   4.095  27.199  0.00  0.00    -0.000 A 
ATOM     13  CZ  PHE A   1      21.998   4.996  26.267  0.00  0.00    -0.000 A 
ATOM     14  CE1 PHE A   1      22.318   4.569  24.988  0.00  0.00    -0.000 A 
ATOM     15  CD1 PHE A   1      22.147   3.235  24.641  0.00  0.00    -0.004 A 
ENDBRANCH   9  10
ENDBRANCH   6   9
ENDBRANCH   2   6
ENDBRANCH   1   3
BRANCH   1  16
ATOM     16  C   CYS A   2      18.168   1.395  28.951  0.00  0.00    +0.242 C 
ATOM     17  N   ALA A   3      17.301   2.245  29.492  0.00  0.00    -0.297 N 
ATOM     18  H   ALA A   3      16.429   2.472  28.972  0.00  0.00    +0.150 HD
ATOM     19  O   CYS A   2      19.233   1.077  29.475  0.00  0.00    -0.273 OA
BRANCH  17  20
ATOM     20  CA  ALA A   3      17.530   2.866  30.783  0.00  0.00    +0.149 C 
ATOM     21  CB  ALA A   3      18.440   4.078  30.647  0.00  0.00    +0.031 C 
BRANCH  20  22
ATOM     22  C   ALA A   3      16.192   3.278  31.345  0.00  0.00    +0.241 C 
ATOM     23  N   GLY A   4      16.152   3.433  32.658  0.00  0.00    -0.296 N 
ATOM     24  H   GLY A   4      17.010   3.281  33.226  0.00  0.00    +0.150 HD
ATOM     25  O   ALA A   3      15.214   3.443  30.615  0.00  0.00    -0.273 OA
BRANCH  23  26
ATOM     26  CA  GLY A   4      14.922   3.812  33.299  0.00  0.00    +0.163 C 
BRANCH  26  27
ATOM     27  C   GLY A   4      14.660   2.910  34.482  0.00  0.00    +0.229 C 
ATOM     28  O   GLY A   4      15.565   2.262  35.013  0.00  0.00    -0.286 OA
ENDBRANCH  26  27
ENDBRANCH  23  26
ENDBRANCH  20  22
ENDBRANCH  17  20
ENDBRANCH   1  16
BRANCH   1  29
ATOM     29  CB  CYS A   2      16.814  -0.332  27.812  0.00  0.00    +0.098 C 
ATOM     30  SG  CYS A   2      16.748  -1.387  26.339  0.00  0.00    -0.080 S 
ENDBRANCH   1  29
TORSDOF 11
REMARK  Name = ../refined-set-2016/1nfu/1nfu_pocket.pdb
REMARK  206 active torsions:
REMARK  status: ('A' for Active; 'I' for Inactive)
REMARK    1  A    between atoms: _1  and  _5
REMARK    2  A    between atoms: _5  and  _6
REMARK    3  A    between atoms: _5  and  _8
REMARK    4  A    between atoms: _8  and  _9
REMARK    5  A    between atoms: _12  and  _14
REMARK    6  A    between atoms: _14  and  _15
REMARK    7  A    between atoms: _14  and  _17
REMARK    8  A    between atoms: _20  and  _22
REMARK    9  A    between atoms: _22  and  _23
REMARK   10  A    between atoms: _22  and  _25
REMARK   11  A    between atoms: _25  and  _26
REMARK   12  A    between atoms: _32  and  _34
REMARK   13  A    between atoms: _34  and  _35
REMARK   14  A    between atoms: _34  and  _37
REMARK   15  A    between atoms: _37  and  _38
REMARK   16  A    between atoms: _43  and  _45
REMARK   17  A    between atoms: _45  and  _46
REMARK   18  A    between atoms: _45  and  _48
REMARK   19  A    between atoms: _48  and  _49
REMARK   20  A    between atoms: _49  and  _50
REMARK   21  A    between atoms: _55  and  _57
REMARK   22  A    between atoms: _57  and  _58
REMARK   23  A    between atoms: _57  and  _60
REMARK   24  A    between atoms: _60  and  _61
REMARK   25  A    between atoms: _64  and  _66
REMARK   26  A    between atoms: _66  and  _67
REMARK   27  A    between atoms: _66  and  _69
REMARK   28  A    between atoms: _69  and  _70
REMARK   29  A    between atoms: _70  and  _71
REMARK   30  A    between atoms: _71  and  _72
REMARK   31  A    between atoms: _72  and  _73
REMARK   32  A    between atoms: _77  and  _79
REMARK   33  A    between atoms: _79  and  _80
REMARK   34  A    between atoms: _79  and  _82
REMARK   35  A    between atoms: _82  and  _83
REMARK   36  A    between atoms: _83  and  _84
REMARK   37  A    between atoms: _87  and  _89
REMARK   38  A    between atoms: _89  and  _90
REMARK   39  A    between atoms: _89  and  _92
REMARK   40  A    between atoms: _92  and  _93
REMARK   41  A    between atoms: _96  and  _98
REMARK   42  A    between atoms: _98  and  _99
REMARK   43  A    between atoms: _98  and  _101
REMARK   44  A    between atoms: _101  and  _102
REMARK   45  A    between atoms: _107  and  _108
REMARK   46  A    between atoms: _110  and  _112
REMARK   47  A    between atoms: _112  and  _113
REMARK   48  A    between atoms: _112  and  _115
REMARK   49  A    between atoms: _115  and  _116
REMARK   50  A    between atoms: _119  and  _121
REMARK   51  A    between atoms: _121  and  _122
REMARK   52  A    between atoms: _121  and  _124
REMARK   53  A    between atoms: _127  and  _129
REMARK   54  A    between atoms: _129  and  _130
REMARK   55  A    between atoms: _129  and  _132
REMARK   56  A    between atoms: _132  and  _133
REMARK   57  A    between atoms: _133  and  _134
REMARK   58  A    between atoms: _134  and  _135
REMARK   59  A    between atoms: _144  and  _146
REMARK   60  A    between atoms: _146  and  _147
REMARK   61  A    between atoms: _146  and  _149
REMARK   62  A    between atoms: _149  and  _150
REMARK   63  A    between atoms: _155  and  _157
REMARK   64  A    between atoms: _157  and  _158
REMARK   65  A    between atoms: _157  and  _160
REMARK   66  A    between atoms: _160  and  _161
REMARK   67  A    between atoms: _161  and  _162
REMARK   68  A    between atoms: _165  and  _167
REMARK   69  A    between atoms: _167  and  _168
REMARK   70  A    between atoms: _167  and  _170
REMARK   71  A    between atoms: _170  and  _171
REMARK   72  A    between atoms: _171  and  _172
REMARK   73  A    between atoms: _172  and  _173
REMARK   74  A    between atoms: _173  and  _174
REMARK   75  A    between atoms: _178  and  _180
REMARK   76  A    between atoms: _180  and  _181
REMARK   77  A    between atoms: _180  and  _183
REMARK   78  A    between atoms: _186  and  _188
REMARK   79  A    between atoms: _188  and  _189
REMARK   80  A    between atoms: _188  and  _191
REMARK   81  A    between atoms: _191  and  _192
REMARK   82  A    between atoms: _194  and  _196
REMARK   83  A    between atoms: _196  and  _197
REMARK   84  A    between atoms: _196  and  _199
REMARK   85  A    between atoms: _199  and  _200
REMARK   86  A    between atoms: _202  and  _204
REMARK   87  A    between atoms: _204  and  _205
REMARK   88  A    between atoms: _204  and  _207
REMARK   89  A    between atoms: _207  and  _208
REMARK   90  A    between atoms: _214  and  _216
REMARK   91  A    between atoms: _216  and  _217
REMARK   92  A    between atoms: _216  and  _219
REMARK   93  A    between atoms: _219  and  _220
REMARK   94  A    between atoms: _223  and  _225
REMARK   95  A    between atoms: _225  and  _226
REMARK   96  A    between atoms: _225  and  _228
REMARK   97  A    between atoms: _228  and  _229
REMARK   98  A    between atoms: _235  and  _237
REMARK   99  A    between atoms: _237  and  _238
REMARK  100  A    between atoms: _237  and  _240
REMARK  101  A    between atoms: _242  and  _244
REMARK  102  A    between atoms: _244  and  _245
REMARK  103  A    between atoms: _248  and  _250
REMARK  104  A    between atoms: _250  and  _251
REMARK  105  A    between atoms: _253  and  _255
REMARK  106  A    between atoms: _255  and  _256
REMARK  107  A    between atoms: _255  and  _258
REMARK  108  A    between atoms: _258  and  _259
REMARK  109  A    between atoms: _259  and  _260
REMARK  110  A    between atoms: _263  and  _265
REMARK  111  A    between atoms: _265  and  _266
REMARK  112  A    between atoms: _265  and  _268
REMARK  113  A    between atoms: _268  and  _269
REMARK  114  A    between atoms: _272  and  _274
REMARK  115  A    between atoms: _274  and  _275
REMARK  116  A    between atoms: _278  and  _280
REMARK  117  A    between atoms: _280  and  _281
REMARK  118  A    between atoms: _280  and  _283
REMARK  119  A    between atoms: _283  and  _284
REMARK  120  A    between atoms: _284  and  _407
REMARK  121  A    between atoms: _285  and  _287
REMARK  122  A    between atoms: _287  and  _288
REMARK  123  A    between atoms: _287  and  _290
REMARK  124  A    between atoms: _290  and  _291
REMARK  125  A    between atoms: _291  and  _292
REMARK  126  A    between atoms: _297  and  _299
REMARK  127  A    between atoms: _299  and  _300
REMARK  128  A    between atoms: _302  and  _304
REMARK  129  A    between atoms: _304  and  _305
REMARK  130  A    between atoms: _304  and  _307
REMARK  131  A    between atoms: _307  and  _308
REMARK  132  A    between atoms: _311  and  _313
REMARK  133  A    between atoms: _313  and  _314
REMARK  134  A    between atoms: _313  and  _316
REMARK  135  A    between atoms: _316  and  _317
REMARK  136  A    between atoms: _319  and  _321
REMARK  137  A    between atoms: _321  and  _322
REMARK  138  A    between atoms: _324  and  _326
REMARK  139  A    between atoms: _326  and  _327
REMARK  140  A    between atoms: _329  and  _331
REMARK  141  A    between atoms: _331  and  _332
REMARK  142  A    between atoms: _331  and  _334
REMARK  143  A    between atoms: _334  and  _335
REMARK  144  A    between atoms: _340  and  _342
REMARK  145  A    between atoms: _342  and  _343
REMARK  146  A    between atoms: _342  and  _345
REMARK  147  A    between atoms: _345  and  _346
REMARK  148  A    between atoms: _349  and  _351
REMARK  149  A    between atoms: _351  and  _352
REMARK  150  A    between atoms: _351  and  _354
REMARK  151  A    between atoms: _357  and  _359
REMARK  152  A    between atoms: _359  and  _360
REMARK  153  A    between atoms: _359  and  _362
REMARK  154  A    between atoms: _362  and  _363
REMARK  155  A    between atoms: _365  and  _367
REMARK  156  A    between atoms: _367  and  _368
REMARK  157  A    between atoms: _367  and  _370
REMARK  158  A    between atoms: _370  and  _371
REMARK  159  A    between atoms: _381  and  _383
REMARK  160  A    between atoms: _383  and  _384
REMARK  161  A    between atoms: _386  and  _388
REMARK  162  A    between atoms: _388  and  _389
REMARK  163  A    between atoms: _388  and  _391
REMARK  164  A    between atoms: _391  and  _392
REMARK  165  A    between atoms: _392  and  _393
REMARK  166  A    between atoms: _396  and  _398
REMARK  167  A    between atoms: _398  and  _399
REMARK  168  A    between atoms: _401  and  _403
REMARK  169  A    between atoms: _403  and  _404
REMARK  170  A    between atoms: _403  and  _406
REMARK  171  A    between atoms: _406  and  _407
REMARK  172  A    between atoms: _408  and  _410
REMARK  173  A    between atoms: _410  and  _411
REMARK  174  A    between atoms: _414  and  _416
REMARK  175  A    between atoms: _416  and  _417
REMARK  176  A    between atoms: _416  and  _419
REMARK  177  A    between atoms: _419  and  _420
REMARK  178  A    between atoms: _420  and  _421
REMARK  179  A    between atoms: _421  and  _422
REMARK  180  A    between atoms: _431  and  _433
REMARK  181  A    between atoms: _433  and  _434
REMARK  182  A    between atoms: _433  and  _436
REMARK  183  A    between atoms: _436  and  _437
REMARK  184  A    between atoms: _437  and  _438
REMARK  185  A    between atoms: _438  and  _439
REMARK  186  A    between atoms: _439  and  _440
REMARK  187  A    between atoms: _444  and  _446
REMARK  188  A    between atoms: _446  and  _447
REMARK  189  A    between atoms: _446  and  _449
REMARK  190  A    between atoms: _449  and  _450
REMARK  191  A    between atoms: _455  and  _456
REMARK  192  A    between atoms: _458  and  _460
REMARK  193  A    between atoms: _460  and  _461
REMARK  194  A    between atoms: _463  and  _465
REMARK  195  A    between atoms: _465  and  _466
REMARK  196  A    between atoms: _465  and  _468
REMARK  197  A    between atoms: _468  and  _469
REMARK  198  A    between atoms: _472  and  _474
REMARK  199  A    between atoms: _474  and  _475
REMARK  200  A    between atoms: _474  and  _477
REMARK  201  A    between atoms: _477  and  _478
REMARK  202  A    between atoms: _483  and  _484
REMARK  203  A    between atoms: _486  and  _488
REMARK  204  A    between atoms: _488  and  _489
REMARK  205  A    between atoms: _488  and  _491
REMARK  206  A    between atoms: _491  and  _492
REMARK                            x       y       z     vdW  Elec       q    Type
REMARK                         _______ _______ _______ _____ _____    ______ ____
ROOT
ATOM      1  CA  SER A   8       6.061   6.576  29.517  0.00  0.00    +0.160 C 
ENDROOT
BRANCH   1   2
ATOM      2  N   SER A   8       5.069   5.886  28.712  0.00  0.00    -0.296 N 
ATOM      3  H   SER A   8       4.158   5.621  29.138  0.00  0.00    +0.150 HD
ATOM      4  C   ASP A   7       5.307   5.589  27.441  0.00  0.00    +0.243 C 
ATOM      5  O   ASP A   7       6.365   5.877  26.877  0.00  0.00    -0.273 OA
BRANCH   4   6
ATOM      6  CA  ASP A   7       4.213   4.855  26.689  0.00  0.00    +0.176 C 
BRANCH   6   7
ATOM      7  N   ASP A   7       4.873   4.002  25.722  0.00  0.00    -0.295 N 
ATOM      8  C   GLY A   6       5.429   2.849  26.094  0.00  0.00    +0.241 C 
ATOM      9  O   GLY A   6       5.414   2.427  27.254  0.00  0.00    -0.273 OA
ATOM     10  H   ASP A   7       4.914   4.293  24.724  0.00  0.00    +0.150 HD
BRANCH   8  11
ATOM     11  CA  GLY A   6       6.131   2.083  24.985  0.00  0.00    +0.149 C 
BRANCH  11  12
ATOM     12  N   GLY A   6       7.530   2.427  25.132  0.00  0.00    -0.297 N 
ATOM     13  H   GLY A   6       8.133   1.885  25.783  0.00  0.00    +0.150 HD
ATOM     14  C   GLN A   5       8.041   3.429  24.439  0.00  0.00    +0.243 C 
ATOM     15  O   GLN A   5       7.394   4.067  23.618  0.00  0.00    -0.273 OA
BRANCH  14  16
ATOM     16  CA  GLN A   5       9.493   3.751  24.667  0.00  0.00    +0.176 C 
BRANCH  16  17
ATOM     17  N   GLN A   5       9.855   4.593  23.554  0.00  0.00    -0.295 N 
ATOM     18  C   TRP A   4      11.095   5.011  23.391  0.00  0.00    +0.241 C 
ATOM     19  O   TRP A   4      12.018   4.729  24.153  0.00  0.00    -0.273 OA
ATOM     20  H   GLN A   5       9.126   4.875  22.868  0.00  0.00    +0.150 HD
BRANCH  18  21
ATOM     21  CA  TRP A   4      11.305   5.869  22.177  0.00  0.00    +0.153 C 
BRANCH  21  22
ATOM     22  N   TRP A   4      12.696   6.280  22.072  0.00  0.00    -0.297 N 
ATOM     23  H   TRP A   4      13.416   5.808  22.656  0.00  0.00    +0.150 HD
ATOM     24  C   SER A   3      13.058   7.249  21.241  0.00  0.00    +0.243 C 
ATOM     25  O   SER A   3      12.246   7.835  20.524  0.00  0.00    -0.273 OA
BRANCH  24  26
ATOM     26  CA  SER A   3      14.551   7.599  21.185  0.00  0.00    +0.178 C 
BRANCH  26  27
ATOM     27  N   SER A   3      15.154   8.148  22.404  0.00  0.00    -0.295 N 
ATOM     28  H   SER A   3      15.275   7.535  23.235  0.00  0.00    +0.150 HD
ATOM     29  C   VAL A   2      15.550   9.421  22.464  0.00  0.00    +0.241 C 
ATOM     30  O   VAL A   2      15.419  10.205  21.513  0.00  0.00    -0.273 OA
BRANCH  29  31
ATOM     31  CA  VAL A   2      16.212   9.875  23.776  0.00  0.00    +0.148 C 
BRANCH  31  32
ATOM     32  N   VAL A   2      17.549  10.330  23.407  0.00  0.00    -0.297 N 
ATOM     33  H   VAL A   2      17.878  11.270  23.706  0.00  0.00    +0.150 HD
ATOM     34  C   ILE A   1      18.347   9.544  22.689  0.00  0.00    +0.238 C 
ATOM     35  O   ILE A   1      18.020   8.408  22.356  0.00  0.00    -0.274 OA
BRANCH  34  36
ATOM     36  CA  ILE A   1      19.724  10.086  22.312  0.00  0.00    +0.145 C 
BRANCH  36  37
ATOM     37  CB  ILE A   1      19.850  10.130  20.764  0.00  0.00    +0.025 C 
ATOM     38  CG2 ILE A   1      18.707  10.925  20.164  0.00  0.00    +0.002 C 
BRANCH  37  39
ATOM     39  CG1 ILE A   1      21.188  10.747  20.360  0.00  0.00    +0.002 C 
ATOM     40  CD1 ILE A   1      21.588  10.472  18.906  0.00  0.00    +0.000 C 
ENDBRANCH  37  39
ENDBRANCH  36  37
BRANCH  36  41
ATOM     41  N   ILE A   1      20.662   9.145  22.883  0.00  0.00    -0.238 NA
ATOM     42  H   ILE A   1      20.576   8.142  22.621  0.00  0.00    +0.142 HD
ENDBRANCH  36  41
ENDBRANCH  34  36
ENDBRANCH  31  32
BRANCH  31  43
ATOM     43  CB  VAL A   2      15.398  11.018  24.454  0.00  0.00    +0.027 C 
ATOM     44  CG2 VAL A   2      16.081  11.444  25.734  0.00  0.00    +0.002 C 
ATOM     45  CG1 VAL A   2      13.972  10.562  24.759  0.00  0.00    +0.002 C 
ENDBRANCH  31  43
ENDBRANCH  29  31
ENDBRANCH  26  27
BRANCH  26  46
ATOM     46  CB  SER A   3      15.350   6.370  20.735  0.00  0.00    +0.166 C 
BRANCH  46  47
ATOM     47  OG  SER A   3      15.221   6.156  19.341  0.00  0.00    -0.380 OA
ATOM     48  H   SER A   3      15.746   5.358  19.081  0.00  0.00    +0.211 HD
ENDBRANCH  46  47
ENDBRANCH  26  46
ENDBRANCH  24  26
ENDBRANCH  21  22
BRANCH  21  49
ATOM     49  CB  TRP A   4      10.868   5.070  20.946  0.00  0.00    +0.057 C 
BRANCH  49  50
ATOM     50  CG  TRP A   4      11.658   3.794  20.713  0.00  0.00    -0.002 A 
ATOM     51  CD2 TRP A   4      11.296   2.460  21.108  0.00  0.00    +0.013 A 
ATOM     52  CE3 TRP A   4      10.212   1.911  21.808  0.00  0.00    +0.001 A 
ATOM     53  CZ3 TRP A   4      10.177   0.525  22.020  0.00  0.00    +0.000 A 
ATOM     54  CH2 TRP A   4      11.204  -0.307  21.541  0.00  0.00    +0.001 A 
ATOM     55  CZ2 TRP A   4      12.276   0.206  20.854  0.00  0.00    +0.017 A 
ATOM     56  CE2 TRP A   4      12.312   1.595  20.642  0.00  0.00    +0.056 A 
ATOM     57  NE1 TRP A   4      13.244   2.367  20.000  0.00  0.00    -0.352 N 
ATOM     58  HE1 TRP A   4      14.113   2.015  19.549  0.00  0.00    +0.166 HD
ATOM     59  CD1 TRP A   4      12.846   3.681  20.048  0.00  0.00    +0.068 A 
ENDBRANCH  49  50
ENDBRANCH  21  49
ENDBRANCH  18  21
ENDBRANCH  16  17
ENDBRANCH  14  16
ENDBRANCH  11  12
BRANCH  11  60
ATOM     60  CB  GLY A   6       5.955   0.574  25.127  0.00  0.00    +0.041 C 
BRANCH  60  61
ATOM     61  CG  GLY A   6       6.573  -0.185  23.965  0.00  0.00    +0.116 C 
BRANCH  61  62
ATOM     62  CD  GLY A   6       6.555  -1.685  24.168  0.00  0.00    +0.365 C 
ATOM     63  OE2 GLY A   6       7.636  -2.265  24.407  0.00  0.00    -0.246 OA
ATOM     64  OE1 GLY A   6       5.459  -2.280  24.085  0.00  0.00    -0.246 OA
ENDBRANCH  61  62
ENDBRANCH  60  61
ENDBRANCH  11  60
ENDBRANCH   8  11
ENDBRANCH   6   7
ENDBRANCH   4   6
ENDBRANCH   1   2
BRANCH   1  65
ATOM     65  C   SER A   8       5.985   6.096  30.958  0.00  0.00    +0.242 C 
ATOM     66  O   SER A   8       4.915   6.092  31.564  0.00  0.00    -0.273 OA
ATOM     67  N   GLY A   9       7.131   5.701  31.501  0.00  0.00    -0.297 N 
ATOM     68  H   GLY A   9       7.997   5.737  30.926  0.00  0.00    +0.150 HD
BRANCH  67  69
ATOM     69  CA  GLY A   9       7.218   5.219  32.874  0.00  0.00    +0.149 C 
ATOM     70  CB  GLY A   9       6.894   6.345  33.845  0.00  0.00    +0.031 C 
BRANCH  69  71
ATOM     71  C   GLY A   9       6.297   4.026  33.124  0.00  0.00    +0.241 C 
ATOM     72  O   GLY A   9       5.996   3.696  34.271  0.00  0.00    -0.273 OA
ATOM     73  N   GLY A  10       5.858   3.377  32.051  0.00  0.00    -0.298 N 
ATOM     74  H   GLY A  10       6.144   3.703  31.106  0.00  0.00    +0.150 HD
BRANCH  73  75
ATOM     75  CA  GLY A  10       4.985   2.219  32.173  0.00  0.00    +0.137 C 
BRANCH  75  76
ATOM     76  C   GLY A  10       5.727   1.108  32.915  0.00  0.00    +0.227 C 
ATOM     77  O   GLY A  10       6.922   0.905  32.694  0.00  0.00    -0.286 OA
ENDBRANCH  75  76
BRANCH  75  78
ATOM     78  CB  GLY A  10       4.576   1.726  30.783  0.00  0.00    +0.031 C 
BRANCH  78  79
ATOM     79  CG  GLY A  10       3.310   2.368  30.232  0.00  0.00    +0.045 C 
BRANCH  79  80
ATOM     80  CD  GLY A  10       2.915   1.755  28.897  0.00  0.00    +0.174 C 
BRANCH  80  81
ATOM     81  NE  GLY A  10       1.904   2.547  28.204  0.00  0.00    -0.265 N 
ATOM     82  HE  GLY A  10       1.473   3.342  28.718  0.00  0.00    +0.259 HD
ATOM     83  CZ  GLY A  10       1.497   2.319  26.958  0.00  0.00    +0.342 C 
ATOM     84  NH2 GLY A  10       0.583   3.100  26.400  0.00  0.00    -0.292 N 
ATOM     85 HH21 GLY A  10       0.181   3.895  26.936  0.00  0.00    +0.255 HD
ATOM     86 HH22 GLY A  10       0.268   2.918  25.426  0.00  0.00    +0.255 HD
ATOM     87  NH1 GLY A  10       2.014   1.315  26.260  0.00  0.00    -0.292 N 
ATOM     88 HH11 GLY A  10       2.739   0.704  26.687  0.00  0.00    +0.255 HD
ATOM     89 HH12 GLY A  10       1.694   1.139  25.286  0.00  0.00    +0.255 HD
ENDBRANCH  80  81
ENDBRANCH  79  80
ENDBRANCH  78  79
ENDBRANCH  75  78
ENDBRANCH  73  75
ENDBRANCH  69  71
ENDBRANCH  67  69
ENDBRANCH   1  65
BRANCH   1  90
ATOM     90  CB  SER A   8       5.832   8.092  29.479  0.00  0.00    +0.098 C 
BRANCH  90  91
ATOM     91  SG  SER A   8       5.894   8.867  27.833  0.00  0.00    -0.080 S 
BRANCH  91  92
ATOM     92  SG  TRP A   4       5.720  10.851  28.246  0.00  0.00    -0.080 S 
BRANCH  92  93
ATOM     93  CB  TRP A   4       7.434  11.420  28.528  0.00  0.00    +0.098 C 
BRANCH  93  94
ATOM     94  CA  TRP A   4       8.474  10.884  27.537  0.00  0.00    +0.160 C 
BRANCH  94  97
ATOM     95  C   SER A   3      10.228  10.150  29.026  0.00  0.00    +0.241 C 
ATOM     96  O   SER A   3       9.518   9.250  29.469  0.00  0.00    -0.273 OA
ATOM     97  N   TRP A   4       9.809  10.997  28.099  0.00  0.00    -0.296 N 
ATOM     98  H   TRP A   4      10.443  11.752  27.769  0.00  0.00    +0.150 HD
BRANCH  95  99
ATOM     99  CA  SER A   3      11.639  10.332  29.548  0.00  0.00    +0.149 C 
ATOM    100  CB  SER A   3      12.652  10.136  28.432  0.00  0.00    +0.031 C 
BRANCH  99 103
ATOM    101  C   VAL A   2      11.052   9.317  31.644  0.00  0.00    +0.241 C 
ATOM    102  O   VAL A   2      10.360  10.285  31.955  0.00  0.00    -0.273 OA
ATOM    103  N   SER A   3      11.740   9.263  30.513  0.00  0.00    -0.297 N 
ATOM    104  H   SER A   3      12.355   8.447  30.320  0.00  0.00    +0.150 HD
BRANCH 101 105
ATOM    105  CA  VAL A   2      11.183   8.118  32.572  0.00  0.00    +0.160 C 
BRANCH 105 108
ATOM    106  C   ILE A   1      10.867   7.626  34.920  0.00  0.00    +0.238 C 
ATOM    107  O   ILE A   1      11.299   6.481  34.777  0.00  0.00    -0.274 OA
ATOM    108  N   VAL A   2      10.787   8.494  33.919  0.00  0.00    -0.297 N 
ATOM    109  H   VAL A   2      10.436   9.456  34.101  0.00  0.00    +0.150 HD
BRANCH 106 110
ATOM    110  CA  ILE A   1      10.396   8.114  36.279  0.00  0.00    +0.145 C 
BRANCH 110 111
ATOM    111  N   ILE A   1       9.386   7.187  36.769  0.00  0.00    -0.238 NA
ATOM    112  H   ILE A   1       9.443   6.187  36.489  0.00  0.00    +0.142 HD
ENDBRANCH 110 111
BRANCH 110 113
ATOM    113  CB  ILE A   1      11.571   8.182  37.253  0.00  0.00    +0.038 C 
BRANCH 113 114
ATOM    114  CG  ILE A   1      11.193   8.695  38.625  0.00  0.00    +0.116 C 
BRANCH 114 115
ATOM    115  CD  ILE A   1      12.365   9.290  39.366  0.00  0.00    +0.365 C 
ATOM    116  OE2 ILE A   1      12.187  10.337  40.028  0.00  0.00    -0.246 OA
ATOM    117  OE1 ILE A   1      13.468   8.713  39.283  0.00  0.00    -0.246 OA
ENDBRANCH 114 115
ENDBRANCH 113 114
ENDBRANCH 110 113
ENDBRANCH 106 110
ENDBRANCH 105 108
BRANCH 105 118
ATOM    118  CB  VAL A   2      10.274   6.984  32.085  0.00  0.00    +0.143 C 
BRANCH 118 119
ATOM    119  CG  VAL A   2      10.697   6.417  30.748  0.00  0.00    +0.367 C 
ATOM    120  OD2 VAL A   2      11.857   6.630  30.338  0.00  0.00    -0.246 OA
ATOM    121  OD1 VAL A   2       9.860   5.749  30.105  0.00  0.00    -0.246 OA
ENDBRANCH 118 119
ENDBRANCH 105 118
ENDBRANCH 101 105
ENDBRANCH  99 103
ENDBRANCH  95  99
ENDBRANCH  94  97
BRANCH  94 122
ATOM    122  C   TRP A   4       8.416  11.649  26.224  0.00  0.00    +0.242 C 
ATOM    123  N   GLN A   5       7.211  11.868  25.709  0.00  0.00    -0.297 N 
ATOM    124  H   GLN A   5       6.366  11.521  26.206  0.00  0.00    +0.150 HD
ATOM    125  O   TRP A   4       9.452  12.028  25.677  0.00  0.00    -0.273 OA
BRANCH 123 126
ATOM    126  CA  GLN A   5       7.065  12.592  24.452  0.00  0.00    +0.149 C 
BRANCH 126 127
ATOM    127  C   GLN A   5       7.541  14.038  24.574  0.00  0.00    +0.241 C 
ATOM    128  O   GLN A   5       7.224  14.730  25.545  0.00  0.00    -0.273 OA
ATOM    129  N   GLY A   6       8.294  14.491  23.576  0.00  0.00    -0.295 N 
ATOM    130  H   GLY A   6       8.513  13.871  22.770  0.00  0.00    +0.150 HD
BRANCH 129 131
ATOM    131  CA  GLY A   6       8.813  15.849  23.606  0.00  0.00    +0.176 C 
BRANCH 131 132
ATOM    132  C   GLY A   6      10.274  15.878  24.018  0.00  0.00    +0.243 C 
ATOM    133  N   ASP A   7      10.704  14.816  24.699  0.00  0.00    -0.296 N 
ATOM    134  H   ASP A   7      10.026  14.057  24.915  0.00  0.00    +0.150 HD
ATOM    135  O   GLY A   6      10.990  16.837  23.726  0.00  0.00    -0.273 OA
BRANCH 133 136
ATOM    136  CA  ASP A   7      12.079  14.669  25.155  0.00  0.00    +0.160 C 
BRANCH 136 137
ATOM    137  C   ASP A   7      12.915  13.997  24.066  0.00  0.00    +0.241 C 
ATOM    138  O   ASP A   7      14.143  14.048  24.094  0.00  0.00    -0.273 OA
ATOM    139  N   SER A   8      12.249  13.361  23.107  0.00  0.00    -0.295 N 
ATOM    140  H   SER A   8      11.209  13.362  23.126  0.00  0.00    +0.150 HD
BRANCH 139 141
ATOM    141  CA  SER A   8      12.940  12.662  22.030  0.00  0.00    +0.178 C 
BRANCH 141 142
ATOM    142  C   SER A   8      13.970  13.527  21.311  0.00  0.00    +0.243 C 
ATOM    143  N   GLY A   9      15.145  12.960  21.051  0.00  0.00    -0.295 N 
ATOM    144  H   GLY A   9      15.312  11.975  21.341  0.00  0.00    +0.150 HD
ATOM    145  O   SER A   8      13.703  14.676  20.987  0.00  0.00    -0.273 OA
BRANCH 143 146
ATOM    146  CA  GLY A   9      16.197  13.691  20.370  0.00  0.00    +0.176 C 
BRANCH 146 147
ATOM    147  C   GLY A   9      17.113  14.304  21.405  0.00  0.00    +0.243 C 
ATOM    148  N   GLY A  10      16.575  14.430  22.616  0.00  0.00    -0.296 N 
ATOM    149  H   GLY A  10      15.600  14.100  22.765  0.00  0.00    +0.150 HD
ATOM    150  O   GLY A   9      18.270  14.633  21.122  0.00  0.00    -0.273 OA
BRANCH 148 151
ATOM    151  CA  GLY A  10      17.294  15.009  23.737  0.00  0.00    +0.163 C 
BRANCH 151 152
ATOM    152  C   GLY A  10      18.524  14.249  24.195  0.00  0.00    +0.229 C 
ATOM    153  O   GLY A  10      18.792  13.139  23.740  0.00  0.00    -0.286 OA
ENDBRANCH 151 152
ENDBRANCH 148 151
ENDBRANCH 146 147
ENDBRANCH 143 146
ENDBRANCH 141 142
BRANCH 141 154
ATOM    154  CB  SER A   8      11.919  12.122  21.024  0.00  0.00    +0.166 C 
BRANCH 154 155
ATOM    155  OG  SER A   8      10.683  11.830  21.657  0.00  0.00    -0.380 OA
ATOM    156  H   SER A   8      10.043  11.484  20.985  0.00  0.00    +0.211 HD
ENDBRANCH 154 155
ENDBRANCH 141 154
ENDBRANCH 139 141
ENDBRANCH 136 137
BRANCH 136 157
ATOM    157  CB  ASP A   7      12.134  13.800  26.416  0.00  0.00    +0.143 C 
BRANCH 157 158
ATOM    158  CG  ASP A   7      11.632  14.514  27.647  0.00  0.00    +0.367 C 
ATOM    159  OD2 ASP A   7      10.939  13.869  28.467  0.00  0.00    -0.246 OA
ATOM    160  OD1 ASP A   7      11.930  15.715  27.806  0.00  0.00    -0.246 OA
ENDBRANCH 157 158
ENDBRANCH 136 157
ENDBRANCH 133 136
ENDBRANCH 131 132
ENDBRANCH 129 131
ENDBRANCH 126 127
BRANCH 126 161
ATOM    161  CB  GLN A   5       5.612  12.573  23.989  0.00  0.00    +0.039 C 
BRANCH 161 162
ATOM    162  CG  GLN A   5       5.457  12.905  22.521  0.00  0.00    +0.087 C 
BRANCH 162 163
ATOM    163  CD  GLN A   5       4.088  12.560  21.991  0.00  0.00    +0.219 C 
ATOM    164  OE1 GLN A   5       3.081  13.131  22.420  0.00  0.00    -0.275 OA
ATOM    165  NE2 GLN A   5       4.037  11.618  21.051  0.00  0.00    -0.329 N 
ATOM    166 HE21 GLN A   5       4.913  11.165  20.721  0.00  0.00    +0.145 HD
ATOM    167 HE22 GLN A   5       3.121  11.336  20.647  0.00  0.00    +0.145 HD
ENDBRANCH 162 163
ENDBRANCH 161 162
ENDBRANCH 126 161
ENDBRANCH 123 126
ENDBRANCH  94 122
ENDBRANCH  93  94
ENDBRANCH  92  93
ENDBRANCH  91  92
ENDBRANCH  90  91
ENDBRANCH   1  90
TORSDOF 71
REMARK  Name = ../refined-set-2016/1nfu/1nfu_pocket.pdb
REMARK  206 active torsions:
REMARK  status: ('A' for Active; 'I' for Inactive)
REMARK    1  A    between atoms: _1  and  _5
REMARK    2  A    between atoms: _5  and  _6
REMARK    3  A    between atoms: _5  and  _8
REMARK    4  A    between atoms: _8  and  _9
REMARK    5  A    between atoms: _12  and  _14
REMARK    6  A    between atoms: _14  and  _15
REMARK    7  A    between atoms: _14  and  _17
REMARK    8  A    between atoms: _20  and  _22
REMARK    9  A    between atoms: _22  and  _23
REMARK   10  A    between atoms: _22  and  _25
REMARK   11  A    between atoms: _25  and  _26
REMARK   12  A    between atoms: _32  and  _34
REMARK   13  A    between atoms: _34  and  _35
REMARK   14  A    between atoms: _34  and  _37
REMARK   15  A    between atoms: _37  and  _38
REMARK   16  A    between atoms: _43  and  _45
REMARK   17  A    between atoms: _45  and  _46
REMARK   18  A    between atoms: _45  and  _48
REMARK   19  A    between atoms: _48  and  _49
REMARK   20  A    between atoms: _49  and  _50
REMARK   21  A    between atoms: _55  and  _57
REMARK   22  A    between atoms: _57  and  _58
REMARK   23  A    between atoms: _57  and  _60
REMARK   24  A    between atoms: _60  and  _61
REMARK   25  A    between atoms: _64  and  _66
REMARK   26  A    between atoms: _66  and  _67
REMARK   27  A    between atoms: _66  and  _69
REMARK   28  A    between atoms: _69  and  _70
REMARK   29  A    between atoms: _70  and  _71
REMARK   30  A    between atoms: _71  and  _72
REMARK   31  A    between atoms: _72  and  _73
REMARK   32  A    between atoms: _77  and  _79
REMARK   33  A    between atoms: _79  and  _80
REMARK   34  A    between atoms: _79  and  _82
REMARK   35  A    between atoms: _82  and  _83
REMARK   36  A    between atoms: _83  and  _84
REMARK   37  A    between atoms: _87  and  _89
REMARK   38  A    between atoms: _89  and  _90
REMARK   39  A    between atoms: _89  and  _92
REMARK   40  A    between atoms: _92  and  _93
REMARK   41  A    between atoms: _96  and  _98
REMARK   42  A    between atoms: _98  and  _99
REMARK   43  A    between atoms: _98  and  _101
REMARK   44  A    between atoms: _101  and  _102
REMARK   45  A    between atoms: _107  and  _108
REMARK   46  A    between atoms: _110  and  _112
REMARK   47  A    between atoms: _112  and  _113
REMARK   48  A    between atoms: _112  and  _115
REMARK   49  A    between atoms: _115  and  _116
REMARK   50  A    between atoms: _119  and  _121
REMARK   51  A    between atoms: _121  and  _122
REMARK   52  A    between atoms: _121  and  _124
REMARK   53  A    between atoms: _127  and  _129
REMARK   54  A    between atoms: _129  and  _130
REMARK   55  A    between atoms: _129  and  _132
REMARK   56  A    between atoms: _132  and  _133
REMARK   57  A    between atoms: _133  and  _134
REMARK   58  A    between atoms: _134  and  _135
REMARK   59  A    between atoms: _144  and  _146
REMARK   60  A    between atoms: _146  and  _147
REMARK   61  A    between atoms: _146  and  _149
REMARK   62  A    between atoms: _149  and  _150
REMARK   63  A    between atoms: _155  and  _157
REMARK   64  A    between atoms: _157  and  _158
REMARK   65  A    between atoms: _157  and  _160
REMARK   66  A    between atoms: _160  and  _161
REMARK   67  A    between atoms: _161  and  _162
REMARK   68  A    between atoms: _165  and  _167
REMARK   69  A    between atoms: _167  and  _168
REMARK   70  A    between atoms: _167  and  _170
REMARK   71  A    between atoms: _170  and  _171
REMARK   72  A    between atoms: _171  and  _172
REMARK   73  A    between atoms: _172  and  _173
REMARK   74  A    between atoms: _173  and  _174
REMARK   75  A    between atoms: _178  and  _180
REMARK   76  A    between atoms: _180  and  _181
REMARK   77  A    between atoms: _180  and  _183
REMARK   78  A    between atoms: _186  and  _188
REMARK   79  A    between atoms: _188  and  _189
REMARK   80  A    between atoms: _188  and  _191
REMARK   81  A    between atoms: _191  and  _192
REMARK   82  A    between atoms: _194  and  _196
REMARK   83  A    between atoms: _196  and  _197
REMARK   84  A    between atoms: _196  and  _199
REMARK   85  A    between atoms: _199  and  _200
REMARK   86  A    between atoms: _202  and  _204
REMARK   87  A    between atoms: _204  and  _205
REMARK   88  A    between atoms: _204  and  _207
REMARK   89  A    between atoms: _207  and  _208
REMARK   90  A    between atoms: _214  and  _216
REMARK   91  A    between atoms: _216  and  _217
REMARK   92  A    between atoms: _216  and  _219
REMARK   93  A    between atoms: _219  and  _220
REMARK   94  A    between atoms: _223  and  _225
REMARK   95  A    between atoms: _225  and  _226
REMARK   96  A    between atoms: _225  and  _228
REMARK   97  A    between atoms: _228  and  _229
REMARK   98  A    between atoms: _235  and  _237
REMARK   99  A    between atoms: _237  and  _238
REMARK  100  A    between atoms: _237  and  _240
REMARK  101  A    between atoms: _242  and  _244
REMARK  102  A    between atoms: _244  and  _245
REMARK  103  A    between atoms: _248  and  _250
REMARK  104  A    between atoms: _250  and  _251
REMARK  105  A    between atoms: _253  and  _255
REMARK  106  A    between atoms: _255  and  _256
REMARK  107  A    between atoms: _255  and  _258
REMARK  108  A    between atoms: _258  and  _259
REMARK  109  A    between atoms: _259  and  _260
REMARK  110  A    between atoms: _263  and  _265
REMARK  111  A    between atoms: _265  and  _266
REMARK  112  A    between atoms: _265  and  _268
REMARK  113  A    between atoms: _268  and  _269
REMARK  114  A    between atoms: _272  and  _274
REMARK  115  A    between atoms: _274  and  _275
REMARK  116  A    between atoms: _278  and  _280
REMARK  117  A    between atoms: _280  and  _281
REMARK  118  A    between atoms: _280  and  _283
REMARK  119  A    between atoms: _283  and  _284
REMARK  120  A    between atoms: _284  and  _407
REMARK  121  A    between atoms: _285  and  _287
REMARK  122  A    between atoms: _287  and  _288
REMARK  123  A    between atoms: _287  and  _290
REMARK  124  A    between atoms: _290  and  _291
REMARK  125  A    between atoms: _291  and  _292
REMARK  126  A    between atoms: _297  and  _299
REMARK  127  A    between atoms: _299  and  _300
REMARK  128  A    between atoms: _302  and  _304
REMARK  129  A    between atoms: _304  and  _305
REMARK  130  A    between atoms: _304  and  _307
REMARK  131  A    between atoms: _307  and  _308
REMARK  132  A    between atoms: _311  and  _313
REMARK  133  A    between atoms: _313  and  _314
REMARK  134  A    between atoms: _313  and  _316
REMARK  135  A    between atoms: _316  and  _317
REMARK  136  A    between atoms: _319  and  _321
REMARK  137  A    between atoms: _321  and  _322
REMARK  138  A    between atoms: _324  and  _326
REMARK  139  A    between atoms: _326  and  _327
REMARK  140  A    between atoms: _329  and  _331
REMARK  141  A    between atoms: _331  and  _332
REMARK  142  A    between atoms: _331  and  _334
REMARK  143  A    between atoms: _334  and  _335
REMARK  144  A    between atoms: _340  and  _342
REMARK  145  A    between atoms: _342  and  _343
REMARK  146  A    between atoms: _342  and  _345
REMARK  147  A    between atoms: _345  and  _346
REMARK  148  A    between atoms: _349  and  _351
REMARK  149  A    between atoms: _351  and  _352
REMARK  150  A    between atoms: _351  and  _354
REMARK  151  A    between atoms: _357  and  _359
REMARK  152  A    between atoms: _359  and  _360
REMARK  153  A    between atoms: _359  and  _362
REMARK  154  A    between atoms: _362  and  _363
REMARK  155  A    between atoms: _365  and  _367
REMARK  156  A    between atoms: _367  and  _368
REMARK  157  A    between atoms: _367  and  _370
REMARK  158  A    between atoms: _370  and  _371
REMARK  159  A    between atoms: _381  and  _383
REMARK  160  A    between atoms: _383  and  _384
REMARK  161  A    between atoms: _386  and  _388
REMARK  162  A    between atoms: _388  and  _389
REMARK  163  A    between atoms: _388  and  _391
REMARK  164  A    between atoms: _391  and  _392
REMARK  165  A    between atoms: _392  and  _393
REMARK  166  A    between atoms: _396  and  _398
REMARK  167  A    between atoms: _398  and  _399
REMARK  168  A    between atoms: _401  and  _403
REMARK  169  A    between atoms: _403  and  _404
REMARK  170  A    between atoms: _403  and  _406
REMARK  171  A    between atoms: _406  and  _407
REMARK  172  A    between atoms: _408  and  _410
REMARK  173  A    between atoms: _410  and  _411
REMARK  174  A    between atoms: _414  and  _416
REMARK  175  A    between atoms: _416  and  _417
REMARK  176  A    between atoms: _416  and  _419
REMARK  177  A    between atoms: _419  and  _420
REMARK  178  A    between atoms: _420  and  _421
REMARK  179  A    between atoms: _421  and  _422
REMARK  180  A    between atoms: _431  and  _433
REMARK  181  A    between atoms: _433  and  _434
REMARK  182  A    between atoms: _433  and  _436
REMARK  183  A    between atoms: _436  and  _437
REMARK  184  A    between atoms: _437  and  _438
REMARK  185  A    between atoms: _438  and  _439
REMARK  186  A    between atoms: _439  and  _440
REMARK  187  A    between atoms: _444  and  _446
REMARK  188  A    between atoms: _446  and  _447
REMARK  189  A    between atoms: _446  and  _449
REMARK  190  A    between atoms: _449  and  _450
REMARK  191  A    between atoms: _455  and  _456
REMARK  192  A    between atoms: _458  and  _460
REMARK  193  A    between atoms: _460  and  _461
REMARK  194  A    between atoms: _463  and  _465
REMARK  195  A    between atoms: _465  and  _466
REMARK  196  A    between atoms: _465  and  _468
REMARK  197  A    between atoms: _468  and  _469
REMARK  198  A    between atoms: _472  and  _474
REMARK  199  A    between atoms: _474  and  _475
REMARK  200  A    between atoms: _474  and  _477
REMARK  201  A    between atoms: _477  and  _478
REMARK  202  A    between atoms: _483  and  _484
REMARK  203  A    between atoms: _486  and  _488
REMARK  204  A    between atoms: _488  and  _489
REMARK  205  A    between atoms: _488  and  _491
REMARK  206  A    between atoms: _491  and  _492
REMARK                            x       y       z     vdW  Elec       q    Type
REMARK                         _______ _______ _______ _____ _____    ______ ____
ROOT
ATOM      1  CB  HIS A   1      21.058   9.691  27.110  0.00  0.00    +0.072 C 
ENDROOT
BRANCH   1   2
ATOM      2  CG  HIS A   1      21.432   8.621  28.087  0.00  0.00    +0.082 A 
ATOM      3  CD2 HIS A   1      20.682   7.918  28.968  0.00  0.00    +0.115 A 
ATOM      4  NE2 HIS A   1      21.544   7.158  29.719  0.00  0.00    -0.221 NA
ATOM      5  CE1 HIS A   1      22.781   7.383  29.310  0.00  0.00    +0.199 A 
ATOM      6  ND1 HIS A   1      22.742   8.260  28.324  0.00  0.00    -0.227 NA
ENDBRANCH   1   2
BRANCH   1   7
ATOM      7  CA  HIS A   1      21.362  11.092  27.631  0.00  0.00    +0.139 C 
BRANCH   7   8
ATOM      8  N   HIS A   1      21.254  12.128  26.623  0.00  0.00    -0.239 NA
ATOM      9  H   HIS A   1      21.908  12.106  25.814  0.00  0.00    +0.142 HD
ENDBRANCH   7   8
BRANCH   7  10
ATOM     10  C   HIS A   1      22.851  11.228  27.841  0.00  0.00    +0.224 C 
ATOM     11  O   HIS A   1      23.623  11.026  26.917  0.00  0.00    -0.287 OA
ENDBRANCH   7  10
ENDBRANCH   1   7
TORSDOF 4
REMARK  Name = ../refined-set-2016/1nfu/1nfu_pocket.pdb
REMARK  206 active torsions:
REMARK  status: ('A' for Active; 'I' for Inactive)
REMARK    1  A    between atoms: _1  and  _5
REMARK    2  A    between atoms: _5  and  _6
REMARK    3  A    between atoms: _5  and  _8
REMARK    4  A    between atoms: _8  and  _9
REMARK    5  A    between atoms: _12  and  _14
REMARK    6  A    between atoms: _14  and  _15
REMARK    7  A    between atoms: _14  and  _17
REMARK    8  A    between atoms: _20  and  _22
REMARK    9  A    between atoms: _22  and  _23
REMARK   10  A    between atoms: _22  and  _25
REMARK   11  A    between atoms: _25  and  _26
REMARK   12  A    between atoms: _32  and  _34
REMARK   13  A    between atoms: _34  and  _35
REMARK   14  A    between atoms: _34  and  _37
REMARK   15  A    between atoms: _37  and  _38
REMARK   16  A    between atoms: _43  and  _45
REMARK   17  A    between atoms: _45  and  _46
REMARK   18  A    between atoms: _45  and  _48
REMARK   19  A    between atoms: _48  and  _49
REMARK   20  A    between atoms: _49  and  _50
REMARK   21  A    between atoms: _55  and  _57
REMARK   22  A    between atoms: _57  and  _58
REMARK   23  A    between atoms: _57  and  _60
REMARK   24  A    between atoms: _60  and  _61
REMARK   25  A    between atoms: _64  and  _66
REMARK   26  A    between atoms: _66  and  _67
REMARK   27  A    between atoms: _66  and  _69
REMARK   28  A    between atoms: _69  and  _70
REMARK   29  A    between atoms: _70  and  _71
REMARK   30  A    between atoms: _71  and  _72
REMARK   31  A    between atoms: _72  and  _73
REMARK   32  A    between atoms: _77  and  _79
REMARK   33  A    between atoms: _79  and  _80
REMARK   34  A    between atoms: _79  and  _82
REMARK   35  A    between atoms: _82  and  _83
REMARK   36  A    between atoms: _83  and  _84
REMARK   37  A    between atoms: _87  and  _89
REMARK   38  A    between atoms: _89  and  _90
REMARK   39  A    between atoms: _89  and  _92
REMARK   40  A    between atoms: _92  and  _93
REMARK   41  A    between atoms: _96  and  _98
REMARK   42  A    between atoms: _98  and  _99
REMARK   43  A    between atoms: _98  and  _101
REMARK   44  A    between atoms: _101  and  _102
REMARK   45  A    between atoms: _107  and  _108
REMARK   46  A    between atoms: _110  and  _112
REMARK   47  A    between atoms: _112  and  _113
REMARK   48  A    between atoms: _112  and  _115
REMARK   49  A    between atoms: _115  and  _116
REMARK   50  A    between atoms: _119  and  _121
REMARK   51  A    between atoms: _121  and  _122
REMARK   52  A    between atoms: _121  and  _124
REMARK   53  A    between atoms: _127  and  _129
REMARK   54  A    between atoms: _129  and  _130
REMARK   55  A    between atoms: _129  and  _132
REMARK   56  A    between atoms: _132  and  _133
REMARK   57  A    between atoms: _133  and  _134
REMARK   58  A    between atoms: _134  and  _135
REMARK   59  A    between atoms: _144  and  _146
REMARK   60  A    between atoms: _146  and  _147
REMARK   61  A    between atoms: _146  and  _149
REMARK   62  A    between atoms: _149  and  _150
REMARK   63  A    between atoms: _155  and  _157
REMARK   64  A    between atoms: _157  and  _158
REMARK   65  A    between atoms: _157  and  _160
REMARK   66  A    between atoms: _160  and  _161
REMARK   67  A    between atoms: _161  and  _162
REMARK   68  A    between atoms: _165  and  _167
REMARK   69  A    between atoms: _167  and  _168
REMARK   70  A    between atoms: _167  and  _170
REMARK   71  A    between atoms: _170  and  _171
REMARK   72  A    between atoms: _171  and  _172
REMARK   73  A    between atoms: _172  and  _173
REMARK   74  A    between atoms: _173  and  _174
REMARK   75  A    between atoms: _178  and  _180
REMARK   76  A    between atoms: _180  and  _181
REMARK   77  A    between atoms: _180  and  _183
REMARK   78  A    between atoms: _186  and  _188
REMARK   79  A    between atoms: _188  and  _189
REMARK   80  A    between atoms: _188  and  _191
REMARK   81  A    between atoms: _191  and  _192
REMARK   82  A    between atoms: _194  and  _196
REMARK   83  A    between atoms: _196  and  _197
REMARK   84  A    between atoms: _196  and  _199
REMARK   85  A    between atoms: _199  and  _200
REMARK   86  A    between atoms: _202  and  _204
REMARK   87  A    between atoms: _204  and  _205
REMARK   88  A    between atoms: _204  and  _207
REMARK   89  A    between atoms: _207  and  _208
REMARK   90  A    between atoms: _214  and  _216
REMARK   91  A    between atoms: _216  and  _217
REMARK   92  A    between atoms: _216  and  _219
REMARK   93  A    between atoms: _219  and  _220
REMARK   94  A    between atoms: _223  and  _225
REMARK   95  A    between atoms: _225  and  _226
REMARK   96  A    between atoms: _225  and  _228
REMARK   97  A    between atoms: _228  and  _229
REMARK   98  A    between atoms: _235  and  _237
REMARK   99  A    between atoms: _237  and  _238
REMARK  100  A    between atoms: _237  and  _240
REMARK  101  A    between atoms: _242  and  _244
REMARK  102  A    between atoms: _244  and  _245
REMARK  103  A    between atoms: _248  and  _250
REMARK  104  A    between atoms: _250  and  _251
REMARK  105  A    between atoms: _253  and  _255
REMARK  106  A    between atoms: _255  and  _256
REMARK  107  A    between atoms: _255  and  _258
REMARK  108  A    between atoms: _258  and  _259
REMARK  109  A    between atoms: _259  and  _260
REMARK  110  A    between atoms: _263  and  _265
REMARK  111  A    between atoms: _265  and  _266
REMARK  112  A    between atoms: _265  and  _268
REMARK  113  A    between atoms: _268  and  _269
REMARK  114  A    between atoms: _272  and  _274
REMARK  115  A    between atoms: _274  and  _275
REMARK  116  A    between atoms: _278  and  _280
REMARK  117  A    between atoms: _280  and  _281
REMARK  118  A    between atoms: _280  and  _283
REMARK  119  A    between atoms: _283  and  _284
REMARK  120  A    between atoms: _284  and  _407
REMARK  121  A    between atoms: _285  and  _287
REMARK  122  A    between atoms: _287  and  _288
REMARK  123  A    between atoms: _287  and  _290
REMARK  124  A    between atoms: _290  and  _291
REMARK  125  A    between atoms: _291  and  _292
REMARK  126  A    between atoms: _297  and  _299
REMARK  127  A    between atoms: _299  and  _300
REMARK  128  A    between atoms: _302  and  _304
REMARK  129  A    between atoms: _304  and  _305
REMARK  130  A    between atoms: _304  and  _307
REMARK  131  A    between atoms: _307  and  _308
REMARK  132  A    between atoms: _311  and  _313
REMARK  133  A    between atoms: _313  and  _314
REMARK  134  A    between atoms: _313  and  _316
REMARK  135  A    between atoms: _316  and  _317
REMARK  136  A    between atoms: _319  and  _321
REMARK  137  A    between atoms: _321  and  _322
REMARK  138  A    between atoms: _324  and  _326
REMARK  139  A    between atoms: _326  and  _327
REMARK  140  A    between atoms: _329  and  _331
REMARK  141  A    between atoms: _331  and  _332
REMARK  142  A    between atoms: _331  and  _334
REMARK  143  A    between atoms: _334  and  _335
REMARK  144  A    between atoms: _340  and  _342
REMARK  145  A    between atoms: _342  and  _343
REMARK  146  A    between atoms: _342  and  _345
REMARK  147  A    between atoms: _345  and  _346
REMARK  148  A    between atoms: _349  and  _351
REMARK  149  A    between atoms: _351  and  _352
REMARK  150  A    between atoms: _351  and  _354
REMARK  151  A    between atoms: _357  and  _359
REMARK  152  A    between atoms: _359  and  _360
REMARK  153  A    between atoms: _359  and  _362
REMARK  154  A    between atoms: _362  and  _363
REMARK  155  A    between atoms: _365  and  _367
REMARK  156  A    between atoms: _367  and  _368
REMARK  157  A    between atoms: _367  and  _370
REMARK  158  A    between atoms: _370  and  _371
REMARK  159  A    between atoms: _381  and  _383
REMARK  160  A    between atoms: _383  and  _384
REMARK  161  A    between atoms: _386  and  _388
REMARK  162  A    between atoms: _388  and  _389
REMARK  163  A    between atoms: _388  and  _391
REMARK  164  A    between atoms: _391  and  _392
REMARK  165  A    between atoms: _392  and  _393
REMARK  166  A    between atoms: _396  and  _398
REMARK  167  A    between atoms: _398  and  _399
REMARK  168  A    between atoms: _401  and  _403
REMARK  169  A    between atoms: _403  and  _404
REMARK  170  A    between atoms: _403  and  _406
REMARK  171  A    between atoms: _406  and  _407
REMARK  172  A    between atoms: _408  and  _410
REMARK  173  A    between atoms: _410  and  _411
REMARK  174  A    between atoms: _414  and  _416
REMARK  175  A    between atoms: _416  and  _417
REMARK  176  A    between atoms: _416  and  _419
REMARK  177  A    between atoms: _419  and  _420
REMARK  178  A    between atoms: _420  and  _421
REMARK  179  A    between atoms: _421  and  _422
REMARK  180  A    between atoms: _431  and  _433
REMARK  181  A    between atoms: _433  and  _434
REMARK  182  A    between atoms: _433  and  _436
REMARK  183  A    between atoms: _436  and  _437
REMARK  184  A    between atoms: _437  and  _438
REMARK  185  A    between atoms: _438  and  _439
REMARK  186  A    between atoms: _439  and  _440
REMARK  187  A    between atoms: _444  and  _446
REMARK  188  A    between atoms: _446  and  _447
REMARK  189  A    between atoms: _446  and  _449
REMARK  190  A    between atoms: _449  and  _450
REMARK  191  A    between atoms: _455  and  _456
REMARK  192  A    between atoms: _458  and  _460
REMARK  193  A    between atoms: _460  and  _461
REMARK  194  A    between atoms: _463  and  _465
REMARK  195  A    between atoms: _465  and  _466
REMARK  196  A    between atoms: _465  and  _468
REMARK  197  A    between atoms: _468  and  _469
REMARK  198  A    between atoms: _472  and  _474
REMARK  199  A    between atoms: _474  and  _475
REMARK  200  A    between atoms: _474  and  _477
REMARK  201  A    between atoms: _477  and  _478
REMARK  202  A    between atoms: _483  and  _484
REMARK  203  A    between atoms: _486  and  _488
REMARK  204  A    between atoms: _488  and  _489
REMARK  205  A    between atoms: _488  and  _491
REMARK  206  A    between atoms: _491  and  _492
REMARK                            x       y       z     vdW  Elec       q    Type
REMARK                         _______ _______ _______ _____ _____    ______ ____
ROOT
ATOM      1  C   GLY A   3      14.208   3.563  27.013  0.00  0.00    +0.243 C 
ATOM      2  O   GLY A   3      15.221   3.030  27.464  0.00  0.00    -0.273 OA
ATOM      3  N   ILE A   4      13.985   3.687  25.714  0.00  0.00    -0.297 N 
ATOM      4  H   ILE A   4      13.102   4.122  25.378  0.00  0.00    +0.150 HD
ENDROOT
BRANCH   3   5
ATOM      5  CA  ILE A   4      14.971   3.216  24.759  0.00  0.00    +0.149 C 
BRANCH   5   6
ATOM      6  C   ILE A   4      15.726   4.399  24.147  0.00  0.00    +0.241 C 
ATOM      7  N   TYR A   5      17.052   4.293  24.147  0.00  0.00    -0.297 N 
ATOM      8  H   TYR A   5      17.479   3.426  24.530  0.00  0.00    +0.150 HD
ATOM      9  O   ILE A   4      15.122   5.369  23.683  0.00  0.00    -0.273 OA
BRANCH   7  10
ATOM     10  CA  TYR A   5      17.934   5.333  23.636  0.00  0.00    +0.153 C 
BRANCH  10  11
ATOM     11  C   TYR A   5      18.826   4.848  22.512  0.00  0.00    +0.241 C 
ATOM     12  O   TYR A   5      19.179   3.672  22.449  0.00  0.00    -0.273 OA
ATOM     13  N   THR A   6      19.198   5.767  21.628  0.00  0.00    -0.296 N 
ATOM     14  H   THR A   6      18.845   6.740  21.726  0.00  0.00    +0.150 HD
BRANCH  13  15
ATOM     15  CA  THR A   6      20.087   5.440  20.528  0.00  0.00    +0.164 C 
BRANCH  15  16
ATOM     16  C   THR A   6      21.458   5.233  21.157  0.00  0.00    +0.229 C 
ATOM     17  O   THR A   6      21.883   6.033  21.982  0.00  0.00    -0.286 OA
ENDBRANCH  15  16
BRANCH  15  18
ATOM     18  CB  THR A   6      20.169   6.596  19.509  0.00  0.00    +0.136 C 
ATOM     19  CG2 THR A   6      21.113   6.244  18.370  0.00  0.00    +0.034 C 
BRANCH  18  20
ATOM     20  OG1 THR A   6      18.863   6.865  18.984  0.00  0.00    -0.382 OA
ATOM     21  HG1 THR A   6      18.918   7.607  18.331  0.00  0.00    +0.210 HD
ENDBRANCH  18  20
ENDBRANCH  15  18
ENDBRANCH  13  15
ENDBRANCH  10  11
BRANCH  10  22
ATOM     22  CB  TYR A   5      18.835   5.843  24.758  0.00  0.00    +0.055 C 
BRANCH  22  23
ATOM     23  CG  TYR A   5      18.082   6.375  25.947  0.00  0.00    -0.020 A 
ATOM     24  CD2 TYR A   5      17.462   5.509  26.848  0.00  0.00    -0.001 A 
ATOM     25  CE2 TYR A   5      16.741   5.998  27.937  0.00  0.00    +0.036 A 
ATOM     26  CZ  TYR A   5      16.638   7.365  28.123  0.00  0.00    +0.134 A 
ATOM     27  CE1 TYR A   5      17.247   8.245  27.243  0.00  0.00    +0.036 A 
ATOM     28  CD1 TYR A   5      17.966   7.749  26.162  0.00  0.00    -0.001 A 
BRANCH  26  29
ATOM     29  OH  TYR A   5      15.911   7.852  29.169  0.00  0.00    -0.506 OA
ATOM     30  HH  TYR A   5      15.547   7.097  29.696  0.00  0.00    +0.292 HD
ENDBRANCH  26  29
ENDBRANCH  22  23
ENDBRANCH  10  22
ENDBRANCH   7  10
ENDBRANCH   5   6
BRANCH   5  31
ATOM     31  CB  ILE A   4      14.323   2.377  23.630  0.00  0.00    +0.027 C 
ATOM     32  CG2 ILE A   4      15.409   1.652  22.854  0.00  0.00    +0.002 C 
BRANCH  31  33
ATOM     33  CG1 ILE A   4      13.296   1.391  24.215  0.00  0.00    +0.002 C 
ATOM     34  CD1 ILE A   4      13.845   0.440  25.270  0.00  0.00    +0.000 C 
ENDBRANCH  31  33
ENDBRANCH   5  31
ENDBRANCH   3   5
BRANCH   1  35
ATOM     35  CA  GLY A   3      13.144   4.084  27.952  0.00  0.00    +0.176 C 
BRANCH  35  37
ATOM     36  C   TYR A   2      12.183   2.039  28.770  0.00  0.00    +0.241 C 
ATOM     37  N   GLY A   3      12.986   3.078  28.978  0.00  0.00    -0.295 N 
ATOM     38  H   GLY A   3      13.500   3.167  29.878  0.00  0.00    +0.150 HD
ATOM     39  O   TYR A   2      11.515   1.897  27.746  0.00  0.00    -0.273 OA
BRANCH  36  40
ATOM     40  CA  TYR A   2      12.122   1.011  29.887  0.00  0.00    +0.153 C 
BRANCH  40  43
ATOM     41  C   LYS A   1      10.003  -0.015  30.511  0.00  0.00    +0.238 C 
ATOM     42  O   LYS A   1       9.892   0.689  31.510  0.00  0.00    -0.274 OA
ATOM     43  N   TYR A   2      11.032   0.068  29.673  0.00  0.00    -0.297 N 
ATOM     44  H   TYR A   2      11.060  -0.557  28.842  0.00  0.00    +0.150 HD
BRANCH  41  45
ATOM     45  CA  LYS A   1       8.941  -1.048  30.174  0.00  0.00    +0.145 C 
BRANCH  45  46
ATOM     46  N   LYS A   1       8.448  -1.639  31.410  0.00  0.00    -0.238 NA
ATOM     47  H   LYS A   1       8.272  -1.019  32.226  0.00  0.00    +0.142 HD
ENDBRANCH  45  46
BRANCH  45  48
ATOM     48  CB  LYS A   1       7.797  -0.380  29.417  0.00  0.00    +0.026 C 
BRANCH  48  49
ATOM     49  CG  LYS A   1       6.650  -1.306  29.109  0.00  0.00    -0.000 C 
BRANCH  49  50
ATOM     50  CD  LYS A   1       6.796  -1.907  27.731  0.00  0.00    -0.024 C 
BRANCH  50  51
ATOM     51  CE  LYS A   1       6.269  -3.327  27.701  0.00  0.00    -0.086 C 
BRANCH  51  52
ATOM     52  NZ  LYS A   1       6.201  -3.847  26.310  0.00  0.00    +0.380 N 
ATOM     53  HZ1 LYS A   1       5.837  -4.821  26.323  0.00  0.00    -0.089 HD
ATOM     54  HZ2 LYS A   1       7.153  -3.837  25.891  0.00  0.00    -0.089 HD
ATOM     55  HZ3 LYS A   1       5.566  -3.245  25.747  0.00  0.00    -0.089 HD
ENDBRANCH  51  52
ENDBRANCH  50  51
ENDBRANCH  49  50
ENDBRANCH  48  49
ENDBRANCH  45  48
ENDBRANCH  41  45
ENDBRANCH  40  43
BRANCH  40  56
ATOM     56  CB  TYR A   2      13.457   0.266  29.946  0.00  0.00    +0.055 C 
BRANCH  56  57
ATOM     57  CG  TYR A   2      13.496  -0.793  31.009  0.00  0.00    -0.020 A 
ATOM     58  CD2 TYR A   2      13.689  -0.451  32.347  0.00  0.00    -0.001 A 
ATOM     59  CE2 TYR A   2      13.658  -1.412  33.343  0.00  0.00    +0.036 A 
ATOM     60  CZ  TYR A   2      13.435  -2.736  33.007  0.00  0.00    +0.134 A 
ATOM     61  CE1 TYR A   2      13.248  -3.105  31.683  0.00  0.00    +0.036 A 
ATOM     62  CD1 TYR A   2      13.280  -2.133  30.692  0.00  0.00    -0.001 A 
BRANCH  60  63
ATOM     63  OH  TYR A   2      13.390  -3.685  33.999  0.00  0.00    -0.506 OA
ATOM     64  HH  TYR A   2      13.542  -3.252  34.876  0.00  0.00    +0.292 HD
ENDBRANCH  60  63
ENDBRANCH  56  57
ENDBRANCH  40  56
ENDBRANCH  36  40
ENDBRANCH  35  37
ENDBRANCH   1  35
TORSDOF 27
REMARK  Name = ../refined-set-2016/1nfu/1nfu_pocket.pdb
REMARK  206 active torsions:
REMARK  status: ('A' for Active; 'I' for Inactive)
REMARK    1  A    between atoms: _1  and  _5
REMARK    2  A    between atoms: _5  and  _6
REMARK    3  A    between atoms: _5  and  _8
REMARK    4  A    between atoms: _8  and  _9
REMARK    5  A    between atoms: _12  and  _14
REMARK    6  A    between atoms: _14  and  _15
REMARK    7  A    between atoms: _14  and  _17
REMARK    8  A    between atoms: _20  and  _22
REMARK    9  A    between atoms: _22  and  _23
REMARK   10  A    between atoms: _22  and  _25
REMARK   11  A    between atoms: _25  and  _26
REMARK   12  A    between atoms: _32  and  _34
REMARK   13  A    between atoms: _34  and  _35
REMARK   14  A    between atoms: _34  and  _37
REMARK   15  A    between atoms: _37  and  _38
REMARK   16  A    between atoms: _43  and  _45
REMARK   17  A    between atoms: _45  and  _46
REMARK   18  A    between atoms: _45  and  _48
REMARK   19  A    between atoms: _48  and  _49
REMARK   20  A    between atoms: _49  and  _50
REMARK   21  A    between atoms: _55  and  _57
REMARK   22  A    between atoms: _57  and  _58
REMARK   23  A    between atoms: _57  and  _60
REMARK   24  A    between atoms: _60  and  _61
REMARK   25  A    between atoms: _64  and  _66
REMARK   26  A    between atoms: _66  and  _67
REMARK   27  A    between atoms: _66  and  _69
REMARK   28  A    between atoms: _69  and  _70
REMARK   29  A    between atoms: _70  and  _71
REMARK   30  A    between atoms: _71  and  _72
REMARK   31  A    between atoms: _72  and  _73
REMARK   32  A    between atoms: _77  and  _79
REMARK   33  A    between atoms: _79  and  _80
REMARK   34  A    between atoms: _79  and  _82
REMARK   35  A    between atoms: _82  and  _83
REMARK   36  A    between atoms: _83  and  _84
REMARK   37  A    between atoms: _87  and  _89
REMARK   38  A    between atoms: _89  and  _90
REMARK   39  A    between atoms: _89  and  _92
REMARK   40  A    between atoms: _92  and  _93
REMARK   41  A    between atoms: _96  and  _98
REMARK   42  A    between atoms: _98  and  _99
REMARK   43  A    between atoms: _98  and  _101
REMARK   44  A    between atoms: _101  and  _102
REMARK   45  A    between atoms: _107  and  _108
REMARK   46  A    between atoms: _110  and  _112
REMARK   47  A    between atoms: _112  and  _113
REMARK   48  A    between atoms: _112  and  _115
REMARK   49  A    between atoms: _115  and  _116
REMARK   50  A    between atoms: _119  and  _121
REMARK   51  A    between atoms: _121  and  _122
REMARK   52  A    between atoms: _121  and  _124
REMARK   53  A    between atoms: _127  and  _129
REMARK   54  A    between atoms: _129  and  _130
REMARK   55  A    between atoms: _129  and  _132
REMARK   56  A    between atoms: _132  and  _133
REMARK   57  A    between atoms: _133  and  _134
REMARK   58  A    between atoms: _134  and  _135
REMARK   59  A    between atoms: _144  and  _146
REMARK   60  A    between atoms: _146  and  _147
REMARK   61  A    between atoms: _146  and  _149
REMARK   62  A    between atoms: _149  and  _150
REMARK   63  A    between atoms: _155  and  _157
REMARK   64  A    between atoms: _157  and  _158
REMARK   65  A    between atoms: _157  and  _160
REMARK   66  A    between atoms: _160  and  _161
REMARK   67  A    between atoms: _161  and  _162
REMARK   68  A    between atoms: _165  and  _167
REMARK   69  A    between atoms: _167  and  _168
REMARK   70  A    between atoms: _167  and  _170
REMARK   71  A    between atoms: _170  and  _171
REMARK   72  A    between atoms: _171  and  _172
REMARK   73  A    between atoms: _172  and  _173
REMARK   74  A    between atoms: _173  and  _174
REMARK   75  A    between atoms: _178  and  _180
REMARK   76  A    between atoms: _180  and  _181
REMARK   77  A    between atoms: _180  and  _183
REMARK   78  A    between atoms: _186  and  _188
REMARK   79  A    between atoms: _188  and  _189
REMARK   80  A    between atoms: _188  and  _191
REMARK   81  A    between atoms: _191  and  _192
REMARK   82  A    between atoms: _194  and  _196
REMARK   83  A    between atoms: _196  and  _197
REMARK   84  A    between atoms: _196  and  _199
REMARK   85  A    between atoms: _199  and  _200
REMARK   86  A    between atoms: _202  and  _204
REMARK   87  A    between atoms: _204  and  _205
REMARK   88  A    between atoms: _204  and  _207
REMARK   89  A    between atoms: _207  and  _208
REMARK   90  A    between atoms: _214  and  _216
REMARK   91  A    between atoms: _216  and  _217
REMARK   92  A    between atoms: _216  and  _219
REMARK   93  A    between atoms: _219  and  _220
REMARK   94  A    between atoms: _223  and  _225
REMARK   95  A    between atoms: _225  and  _226
REMARK   96  A    between atoms: _225  and  _228
REMARK   97  A    between atoms: _228  and  _229
REMARK   98  A    between atoms: _235  and  _237
REMARK   99  A    between atoms: _237  and  _238
REMARK  100  A    between atoms: _237  and  _240
REMARK  101  A    between atoms: _242  and  _244
REMARK  102  A    between atoms: _244  and  _245
REMARK  103  A    between atoms: _248  and  _250
REMARK  104  A    between atoms: _250  and  _251
REMARK  105  A    between atoms: _253  and  _255
REMARK  106  A    between atoms: _255  and  _256
REMARK  107  A    between atoms: _255  and  _258
REMARK  108  A    between atoms: _258  and  _259
REMARK  109  A    between atoms: _259  and  _260
REMARK  110  A    between atoms: _263  and  _265
REMARK  111  A    between atoms: _265  and  _266
REMARK  112  A    between atoms: _265  and  _268
REMARK  113  A    between atoms: _268  and  _269
REMARK  114  A    between atoms: _272  and  _274
REMARK  115  A    between atoms: _274  and  _275
REMARK  116  A    between atoms: _278  and  _280
REMARK  117  A    between atoms: _280  and  _281
REMARK  118  A    between atoms: _280  and  _283
REMARK  119  A    between atoms: _283  and  _284
REMARK  120  A    between atoms: _284  and  _407
REMARK  121  A    between atoms: _285  and  _287
REMARK  122  A    between atoms: _287  and  _288
REMARK  123  A    between atoms: _287  and  _290
REMARK  124  A    between atoms: _290  and  _291
REMARK  125  A    between atoms: _291  and  _292
REMARK  126  A    between atoms: _297  and  _299
REMARK  127  A    between atoms: _299  and  _300
REMARK  128  A    between atoms: _302  and  _304
REMARK  129  A    between atoms: _304  and  _305
REMARK  130  A    between atoms: _304  and  _307
REMARK  131  A    between atoms: _307  and  _308
REMARK  132  A    between atoms: _311  and  _313
REMARK  133  A    between atoms: _313  and  _314
REMARK  134  A    between atoms: _313  and  _316
REMARK  135  A    between atoms: _316  and  _317
REMARK  136  A    between atoms: _319  and  _321
REMARK  137  A    between atoms: _321  and  _322
REMARK  138  A    between atoms: _324  and  _326
REMARK  139  A    between atoms: _326  and  _327
REMARK  140  A    between atoms: _329  and  _331
REMARK  141  A    between atoms: _331  and  _332
REMARK  142  A    between atoms: _331  and  _334
REMARK  143  A    between atoms: _334  and  _335
REMARK  144  A    between atoms: _340  and  _342
REMARK  145  A    between atoms: _342  and  _343
REMARK  146  A    between atoms: _342  and  _345
REMARK  147  A    between atoms: _345  and  _346
REMARK  148  A    between atoms: _349  and  _351
REMARK  149  A    between atoms: _351  and  _352
REMARK  150  A    between atoms: _351  and  _354
REMARK  151  A    between atoms: _357  and  _359
REMARK  152  A    between atoms: _359  and  _360
REMARK  153  A    between atoms: _359  and  _362
REMARK  154  A    between atoms: _362  and  _363
REMARK  155  A    between atoms: _365  and  _367
REMARK  156  A    between atoms: _367  and  _368
REMARK  157  A    between atoms: _367  and  _370
REMARK  158  A    between atoms: _370  and  _371
REMARK  159  A    between atoms: _381  and  _383
REMARK  160  A    between atoms: _383  and  _384
REMARK  161  A    between atoms: _386  and  _388
REMARK  162  A    between atoms: _388  and  _389
REMARK  163  A    between atoms: _388  and  _391
REMARK  164  A    between atoms: _391  and  _392
REMARK  165  A    between atoms: _392  and  _393
REMARK  166  A    between atoms: _396  and  _398
REMARK  167  A    between atoms: _398  and  _399
REMARK  168  A    between atoms: _401  and  _403
REMARK  169  A    between atoms: _403  and  _404
REMARK  170  A    between atoms: _403  and  _406
REMARK  171  A    between atoms: _406  and  _407
REMARK  172  A    between atoms: _408  and  _410
REMARK  173  A    between atoms: _410  and  _411
REMARK  174  A    between atoms: _414  and  _416
REMARK  175  A    between atoms: _416  and  _417
REMARK  176  A    between atoms: _416  and  _419
REMARK  177  A    between atoms: _419  and  _420
REMARK  178  A    between atoms: _420  and  _421
REMARK  179  A    between atoms: _421  and  _422
REMARK  180  A    between atoms: _431  and  _433
REMARK  181  A    between atoms: _433  and  _434
REMARK  182  A    between atoms: _433  and  _436
REMARK  183  A    between atoms: _436  and  _437
REMARK  184  A    between atoms: _437  and  _438
REMARK  185  A    between atoms: _438  and  _439
REMARK  186  A    between atoms: _439  and  _440
REMARK  187  A    between atoms: _444  and  _446
REMARK  188  A    between atoms: _446  and  _447
REMARK  189  A    between atoms: _446  and  _449
REMARK  190  A    between atoms: _449  and  _450
REMARK  191  A    between atoms: _455  and  _456
REMARK  192  A    between atoms: _458  and  _460
REMARK  193  A    between atoms: _460  and  _461
REMARK  194  A    between atoms: _463  and  _465
REMARK  195  A    between atoms: _465  and  _466
REMARK  196  A    between atoms: _465  and  _468
REMARK  197  A    between atoms: _468  and  _469
REMARK  198  A    between atoms: _472  and  _474
REMARK  199  A    between atoms: _474  and  _475
REMARK  200  A    between atoms: _474  and  _477
REMARK  201  A    between atoms: _477  and  _478
REMARK  202  A    between atoms: _483  and  _484
REMARK  203  A    between atoms: _486  and  _488
REMARK  204  A    between atoms: _488  and  _489
REMARK  205  A    between atoms: _488  and  _491
REMARK  206  A    between atoms: _491  and  _492
REMARK                            x       y       z     vdW  Elec       q    Type
REMARK                         _______ _______ _______ _____ _____    ______ ____
ROOT
ATOM      1  O   HOH     1      14.262   6.115  30.290  0.00  0.00    +0.000 OA
ENDROOT
TORSDOF 0
REMARK  Name = ../refined-set-2016/1nfu/1nfu_pocket.pdb
REMARK  206 active torsions:
REMARK  status: ('A' for Active; 'I' for Inactive)
REMARK    1  A    between atoms: _1  and  _5
REMARK    2  A    between atoms: _5  and  _6
REMARK    3  A    between atoms: _5  and  _8
REMARK    4  A    between atoms: _8  and  _9
REMARK    5  A    between atoms: _12  and  _14
REMARK    6  A    between atoms: _14  and  _15
REMARK    7  A    between atoms: _14  and  _17
REMARK    8  A    between atoms: _20  and  _22
REMARK    9  A    between atoms: _22  and  _23
REMARK   10  A    between atoms: _22  and  _25
REMARK   11  A    between atoms: _25  and  _26
REMARK   12  A    between atoms: _32  and  _34
REMARK   13  A    between atoms: _34  and  _35
REMARK   14  A    between atoms: _34  and  _37
REMARK   15  A    between atoms: _37  and  _38
REMARK   16  A    between atoms: _43  and  _45
REMARK   17  A    between atoms: _45  and  _46
REMARK   18  A    between atoms: _45  and  _48
REMARK   19  A    between atoms: _48  and  _49
REMARK   20  A    between atoms: _49  and  _50
REMARK   21  A    between atoms: _55  and  _57
REMARK   22  A    between atoms: _57  and  _58
REMARK   23  A    between atoms: _57  and  _60
REMARK   24  A    between atoms: _60  and  _61
REMARK   25  A    between atoms: _64  and  _66
REMARK   26  A    between atoms: _66  and  _67
REMARK   27  A    between atoms: _66  and  _69
REMARK   28  A    between atoms: _69  and  _70
REMARK   29  A    between atoms: _70  and  _71
REMARK   30  A    between atoms: _71  and  _72
REMARK   31  A    between atoms: _72  and  _73
REMARK   32  A    between atoms: _77  and  _79
REMARK   33  A    between atoms: _79  and  _80
REMARK   34  A    between atoms: _79  and  _82
REMARK   35  A    between atoms: _82  and  _83
REMARK   36  A    between atoms: _83  and  _84
REMARK   37  A    between atoms: _87  and  _89
REMARK   38  A    between atoms: _89  and  _90
REMARK   39  A    between atoms: _89  and  _92
REMARK   40  A    between atoms: _92  and  _93
REMARK   41  A    between atoms: _96  and  _98
REMARK   42  A    between atoms: _98  and  _99
REMARK   43  A    between atoms: _98  and  _101
REMARK   44  A    between atoms: _101  and  _102
REMARK   45  A    between atoms: _107  and  _108
REMARK   46  A    between atoms: _110  and  _112
REMARK   47  A    between atoms: _112  and  _113
REMARK   48  A    between atoms: _112  and  _115
REMARK   49  A    between atoms: _115  and  _116
REMARK   50  A    between atoms: _119  and  _121
REMARK   51  A    between atoms: _121  and  _122
REMARK   52  A    between atoms: _121  and  _124
REMARK   53  A    between atoms: _127  and  _129
REMARK   54  A    between atoms: _129  and  _130
REMARK   55  A    between atoms: _129  and  _132
REMARK   56  A    between atoms: _132  and  _133
REMARK   57  A    between atoms: _133  and  _134
REMARK   58  A    between atoms: _134  and  _135
REMARK   59  A    between atoms: _144  and  _146
REMARK   60  A    between atoms: _146  and  _147
REMARK   61  A    between atoms: _146  and  _149
REMARK   62  A    between atoms: _149  and  _150
REMARK   63  A    between atoms: _155  and  _157
REMARK   64  A    between atoms: _157  and  _158
REMARK   65  A    between atoms: _157  and  _160
REMARK   66  A    between atoms: _160  and  _161
REMARK   67  A    between atoms: _161  and  _162
REMARK   68  A    between atoms: _165  and  _167
REMARK   69  A    between atoms: _167  and  _168
REMARK   70  A    between atoms: _167  and  _170
REMARK   71  A    between atoms: _170  and  _171
REMARK   72  A    between atoms: _171  and  _172
REMARK   73  A    between atoms: _172  and  _173
REMARK   74  A    between atoms: _173  and  _174
REMARK   75  A    between atoms: _178  and  _180
REMARK   76  A    between atoms: _180  and  _181
REMARK   77  A    between atoms: _180  and  _183
REMARK   78  A    between atoms: _186  and  _188
REMARK   79  A    between atoms: _188  and  _189
REMARK   80  A    between atoms: _188  and  _191
REMARK   81  A    between atoms: _191  and  _192
REMARK   82  A    between atoms: _194  and  _196
REMARK   83  A    between atoms: _196  and  _197
REMARK   84  A    between atoms: _196  and  _199
REMARK   85  A    between atoms: _199  and  _200
REMARK   86  A    between atoms: _202  and  _204
REMARK   87  A    between atoms: _204  and  _205
REMARK   88  A    between atoms: _204  and  _207
REMARK   89  A    between atoms: _207  and  _208
REMARK   90  A    between atoms: _214  and  _216
REMARK   91  A    between atoms: _216  and  _217
REMARK   92  A    between atoms: _216  and  _219
REMARK   93  A    between atoms: _219  and  _220
REMARK   94  A    between atoms: _223  and  _225
REMARK   95  A    between atoms: _225  and  _226
REMARK   96  A    between atoms: _225  and  _228
REMARK   97  A    between atoms: _228  and  _229
REMARK   98  A    between atoms: _235  and  _237
REMARK   99  A    between atoms: _237  and  _238
REMARK  100  A    between atoms: _237  and  _240
REMARK  101  A    between atoms: _242  and  _244
REMARK  102  A    between atoms: _244  and  _245
REMARK  103  A    between atoms: _248  and  _250
REMARK  104  A    between atoms: _250  and  _251
REMARK  105  A    between atoms: _253  and  _255
REMARK  106  A    between atoms: _255  and  _256
REMARK  107  A    between atoms: _255  and  _258
REMARK  108  A    between atoms: _258  and  _259
REMARK  109  A    between atoms: _259  and  _260
REMARK  110  A    between atoms: _263  and  _265
REMARK  111  A    between atoms: _265  and  _266
REMARK  112  A    between atoms: _265  and  _268
REMARK  113  A    between atoms: _268  and  _269
REMARK  114  A    between atoms: _272  and  _274
REMARK  115  A    between atoms: _274  and  _275
REMARK  116  A    between atoms: _278  and  _280
REMARK  117  A    between atoms: _280  and  _281
REMARK  118  A    between atoms: _280  and  _283
REMARK  119  A    between atoms: _283  and  _284
REMARK  120  A    between atoms: _284  and  _407
REMARK  121  A    between atoms: _285  and  _287
REMARK  122  A    between atoms: _287  and  _288
REMARK  123  A    between atoms: _287  and  _290
REMARK  124  A    between atoms: _290  and  _291
REMARK  125  A    between atoms: _291  and  _292
REMARK  126  A    between atoms: _297  and  _299
REMARK  127  A    between atoms: _299  and  _300
REMARK  128  A    between atoms: _302  and  _304
REMARK  129  A    between atoms: _304  and  _305
REMARK  130  A    between atoms: _304  and  _307
REMARK  131  A    between atoms: _307  and  _308
REMARK  132  A    between atoms: _311  and  _313
REMARK  133  A    between atoms: _313  and  _314
REMARK  134  A    between atoms: _313  and  _316
REMARK  135  A    between atoms: _316  and  _317
REMARK  136  A    between atoms: _319  and  _321
REMARK  137  A    between atoms: _321  and  _322
REMARK  138  A    between atoms: _324  and  _326
REMARK  139  A    between atoms: _326  and  _327
REMARK  140  A    between atoms: _329  and  _331
REMARK  141  A    between atoms: _331  and  _332
REMARK  142  A    between atoms: _331  and  _334
REMARK  143  A    between atoms: _334  and  _335
REMARK  144  A    between atoms: _340  and  _342
REMARK  145  A    between atoms: _342  and  _343
REMARK  146  A    between atoms: _342  and  _345
REMARK  147  A    between atoms: _345  and  _346
REMARK  148  A    between atoms: _349  and  _351
REMARK  149  A    between atoms: _351  and  _352
REMARK  150  A    between atoms: _351  and  _354
REMARK  151  A    between atoms: _357  and  _359
REMARK  152  A    between atoms: _359  and  _360
REMARK  153  A    between atoms: _359  and  _362
REMARK  154  A    between atoms: _362  and  _363
REMARK  155  A    between atoms: _365  and  _367
REMARK  156  A    between atoms: _367  and  _368
REMARK  157  A    between atoms: _367  and  _370
REMARK  158  A    between atoms: _370  and  _371
REMARK  159  A    between atoms: _381  and  _383
REMARK  160  A    between atoms: _383  and  _384
REMARK  161  A    between atoms: _386  and  _388
REMARK  162  A    between atoms: _388  and  _389
REMARK  163  A    between atoms: _388  and  _391
REMARK  164  A    between atoms: _391  and  _392
REMARK  165  A    between atoms: _392  and  _393
REMARK  166  A    between atoms: _396  and  _398
REMARK  167  A    between atoms: _398  and  _399
REMARK  168  A    between atoms: _401  and  _403
REMARK  169  A    between atoms: _403  and  _404
REMARK  170  A    between atoms: _403  and  _406
REMARK  171  A    between atoms: _406  and  _407
REMARK  172  A    between atoms: _408  and  _410
REMARK  173  A    between atoms: _410  and  _411
REMARK  174  A    between atoms: _414  and  _416
REMARK  175  A    between atoms: _416  and  _417
REMARK  176  A    between atoms: _416  and  _419
REMARK  177  A    between atoms: _419  and  _420
REMARK  178  A    between atoms: _420  and  _421
REMARK  179  A    between atoms: _421  and  _422
REMARK  180  A    between atoms: _431  and  _433
REMARK  181  A    between atoms: _433  and  _434
REMARK  182  A    between atoms: _433  and  _436
REMARK  183  A    between atoms: _436  and  _437
REMARK  184  A    between atoms: _437  and  _438
REMARK  185  A    between atoms: _438  and  _439
REMARK  186  A    between atoms: _439  and  _440
REMARK  187  A    between atoms: _444  and  _446
REMARK  188  A    between atoms: _446  and  _447
REMARK  189  A    between atoms: _446  and  _449
REMARK  190  A    between atoms: _449  and  _450
REMARK  191  A    between atoms: _455  and  _456
REMARK  192  A    between atoms: _458  and  _460
REMARK  193  A    between atoms: _460  and  _461
REMARK  194  A    between atoms: _463  and  _465
REMARK  195  A    between atoms: _465  and  _466
REMARK  196  A    between atoms: _465  and  _468
REMARK  197  A    between atoms: _468  and  _469
REMARK  198  A    between atoms: _472  and  _474
REMARK  199  A    between atoms: _474  and  _475
REMARK  200  A    between atoms: _474  and  _477
REMARK  201  A    between atoms: _477  and  _478
REMARK  202  A    between atoms: _483  and  _484
REMARK  203  A    between atoms: _486  and  _488
REMARK  204  A    between atoms: _488  and  _489
REMARK  205  A    between atoms: _488  and  _491
REMARK  206  A    between atoms: _491  and  _492
REMARK                            x       y       z     vdW  Elec       q    Type
REMARK                         _______ _______ _______ _____ _____    ______ ____
ROOT
ATOM      1  O   HOH     1       9.520   0.531  26.390  0.00  0.00    +0.000 OA
ENDROOT
TORSDOF 0
REMARK  Name = ../refined-set-2016/1nfu/1nfu_pocket.pdb
REMARK  206 active torsions:
REMARK  status: ('A' for Active; 'I' for Inactive)
REMARK    1  A    between atoms: _1  and  _5
REMARK    2  A    between atoms: _5  and  _6
REMARK    3  A    between atoms: _5  and  _8
REMARK    4  A    between atoms: _8  and  _9
REMARK    5  A    between atoms: _12  and  _14
REMARK    6  A    between atoms: _14  and  _15
REMARK    7  A    between atoms: _14  and  _17
REMARK    8  A    between atoms: _20  and  _22
REMARK    9  A    between atoms: _22  and  _23
REMARK   10  A    between atoms: _22  and  _25
REMARK   11  A    between atoms: _25  and  _26
REMARK   12  A    between atoms: _32  and  _34
REMARK   13  A    between atoms: _34  and  _35
REMARK   14  A    between atoms: _34  and  _37
REMARK   15  A    between atoms: _37  and  _38
REMARK   16  A    between atoms: _43  and  _45
REMARK   17  A    between atoms: _45  and  _46
REMARK   18  A    between atoms: _45  and  _48
REMARK   19  A    between atoms: _48  and  _49
REMARK   20  A    between atoms: _49  and  _50
REMARK   21  A    between atoms: _55  and  _57
REMARK   22  A    between atoms: _57  and  _58
REMARK   23  A    between atoms: _57  and  _60
REMARK   24  A    between atoms: _60  and  _61
REMARK   25  A    between atoms: _64  and  _66
REMARK   26  A    between atoms: _66  and  _67
REMARK   27  A    between atoms: _66  and  _69
REMARK   28  A    between atoms: _69  and  _70
REMARK   29  A    between atoms: _70  and  _71
REMARK   30  A    between atoms: _71  and  _72
REMARK   31  A    between atoms: _72  and  _73
REMARK   32  A    between atoms: _77  and  _79
REMARK   33  A    between atoms: _79  and  _80
REMARK   34  A    between atoms: _79  and  _82
REMARK   35  A    between atoms: _82  and  _83
REMARK   36  A    between atoms: _83  and  _84
REMARK   37  A    between atoms: _87  and  _89
REMARK   38  A    between atoms: _89  and  _90
REMARK   39  A    between atoms: _89  and  _92
REMARK   40  A    between atoms: _92  and  _93
REMARK   41  A    between atoms: _96  and  _98
REMARK   42  A    between atoms: _98  and  _99
REMARK   43  A    between atoms: _98  and  _101
REMARK   44  A    between atoms: _101  and  _102
REMARK   45  A    between atoms: _107  and  _108
REMARK   46  A    between atoms: _110  and  _112
REMARK   47  A    between atoms: _112  and  _113
REMARK   48  A    between atoms: _112  and  _115
REMARK   49  A    between atoms: _115  and  _116
REMARK   50  A    between atoms: _119  and  _121
REMARK   51  A    between atoms: _121  and  _122
REMARK   52  A    between atoms: _121  and  _124
REMARK   53  A    between atoms: _127  and  _129
REMARK   54  A    between atoms: _129  and  _130
REMARK   55  A    between atoms: _129  and  _132
REMARK   56  A    between atoms: _132  and  _133
REMARK   57  A    between atoms: _133  and  _134
REMARK   58  A    between atoms: _134  and  _135
REMARK   59  A    between atoms: _144  and  _146
REMARK   60  A    between atoms: _146  and  _147
REMARK   61  A    between atoms: _146  and  _149
REMARK   62  A    between atoms: _149  and  _150
REMARK   63  A    between atoms: _155  and  _157
REMARK   64  A    between atoms: _157  and  _158
REMARK   65  A    between atoms: _157  and  _160
REMARK   66  A    between atoms: _160  and  _161
REMARK   67  A    between atoms: _161  and  _162
REMARK   68  A    between atoms: _165  and  _167
REMARK   69  A    between atoms: _167  and  _168
REMARK   70  A    between atoms: _167  and  _170
REMARK   71  A    between atoms: _170  and  _171
REMARK   72  A    between atoms: _171  and  _172
REMARK   73  A    between atoms: _172  and  _173
REMARK   74  A    between atoms: _173  and  _174
REMARK   75  A    between atoms: _178  and  _180
REMARK   76  A    between atoms: _180  and  _181
REMARK   77  A    between atoms: _180  and  _183
REMARK   78  A    between atoms: _186  and  _188
REMARK   79  A    between atoms: _188  and  _189
REMARK   80  A    between atoms: _188  and  _191
REMARK   81  A    between atoms: _191  and  _192
REMARK   82  A    between atoms: _194  and  _196
REMARK   83  A    between atoms: _196  and  _197
REMARK   84  A    between atoms: _196  and  _199
REMARK   85  A    between atoms: _199  and  _200
REMARK   86  A    between atoms: _202  and  _204
REMARK   87  A    between atoms: _204  and  _205
REMARK   88  A    between atoms: _204  and  _207
REMARK   89  A    between atoms: _207  and  _208
REMARK   90  A    between atoms: _214  and  _216
REMARK   91  A    between atoms: _216  and  _217
REMARK   92  A    between atoms: _216  and  _219
REMARK   93  A    between atoms: _219  and  _220
REMARK   94  A    between atoms: _223  and  _225
REMARK   95  A    between atoms: _225  and  _226
REMARK   96  A    between atoms: _225  and  _228
REMARK   97  A    between atoms: _228  and  _229
REMARK   98  A    between atoms: _235  and  _237
REMARK   99  A    between atoms: _237  and  _238
REMARK  100  A    between atoms: _237  and  _240
REMARK  101  A    between atoms: _242  and  _244
REMARK  102  A    between atoms: _244  and  _245
REMARK  103  A    between atoms: _248  and  _250
REMARK  104  A    between atoms: _250  and  _251
REMARK  105  A    between atoms: _253  and  _255
REMARK  106  A    between atoms: _255  and  _256
REMARK  107  A    between atoms: _255  and  _258
REMARK  108  A    between atoms: _258  and  _259
REMARK  109  A    between atoms: _259  and  _260
REMARK  110  A    between atoms: _263  and  _265
REMARK  111  A    between atoms: _265  and  _266
REMARK  112  A    between atoms: _265  and  _268
REMARK  113  A    between atoms: _268  and  _269
REMARK  114  A    between atoms: _272  and  _274
REMARK  115  A    between atoms: _274  and  _275
REMARK  116  A    between atoms: _278  and  _280
REMARK  117  A    between atoms: _280  and  _281
REMARK  118  A    between atoms: _280  and  _283
REMARK  119  A    between atoms: _283  and  _284
REMARK  120  A    between atoms: _284  and  _407
REMARK  121  A    between atoms: _285  and  _287
REMARK  122  A    between atoms: _287  and  _288
REMARK  123  A    between atoms: _287  and  _290
REMARK  124  A    between atoms: _290  and  _291
REMARK  125  A    between atoms: _291  and  _292
REMARK  126  A    between atoms: _297  and  _299
REMARK  127  A    between atoms: _299  and  _300
REMARK  128  A    between atoms: _302  and  _304
REMARK  129  A    between atoms: _304  and  _305
REMARK  130  A    between atoms: _304  and  _307
REMARK  131  A    between atoms: _307  and  _308
REMARK  132  A    between atoms: _311  and  _313
REMARK  133  A    between atoms: _313  and  _314
REMARK  134  A    between atoms: _313  and  _316
REMARK  135  A    between atoms: _316  and  _317
REMARK  136  A    between atoms: _319  and  _321
REMARK  137  A    between atoms: _321  and  _322
REMARK  138  A    between atoms: _324  and  _326
REMARK  139  A    between atoms: _326  and  _327
REMARK  140  A    between atoms: _329  and  _331
REMARK  141  A    between atoms: _331  and  _332
REMARK  142  A    between atoms: _331  and  _334
REMARK  143  A    between atoms: _334  and  _335
REMARK  144  A    between atoms: _340  and  _342
REMARK  145  A    between atoms: _342  and  _343
REMARK  146  A    between atoms: _342  and  _345
REMARK  147  A    between atoms: _345  and  _346
REMARK  148  A    between atoms: _349  and  _351
REMARK  149  A    between atoms: _351  and  _352
REMARK  150  A    between atoms: _351  and  _354
REMARK  151  A    between atoms: _357  and  _359
REMARK  152  A    between atoms: _359  and  _360
REMARK  153  A    between atoms: _359  and  _362
REMARK  154  A    between atoms: _362  and  _363
REMARK  155  A    between atoms: _365  and  _367
REMARK  156  A    between atoms: _367  and  _368
REMARK  157  A    between atoms: _367  and  _370
REMARK  158  A    between atoms: _370  and  _371
REMARK  159  A    between atoms: _381  and  _383
REMARK  160  A    between atoms: _383  and  _384
REMARK  161  A    between atoms: _386  and  _388
REMARK  162  A    between atoms: _388  and  _389
REMARK  163  A    between atoms: _388  and  _391
REMARK  164  A    between atoms: _391  and  _392
REMARK  165  A    between atoms: _392  and  _393
REMARK  166  A    between atoms: _396  and  _398
REMARK  167  A    between atoms: _398  and  _399
REMARK  168  A    between atoms: _401  and  _403
REMARK  169  A    between atoms: _403  and  _404
REMARK  170  A    between atoms: _403  and  _406
REMARK  171  A    between atoms: _406  and  _407
REMARK  172  A    between atoms: _408  and  _410
REMARK  173  A    between atoms: _410  and  _411
REMARK  174  A    between atoms: _414  and  _416
REMARK  175  A    between atoms: _416  and  _417
REMARK  176  A    between atoms: _416  and  _419
REMARK  177  A    between atoms: _419  and  _420
REMARK  178  A    between atoms: _420  and  _421
REMARK  179  A    between atoms: _421  and  _422
REMARK  180  A    between atoms: _431  and  _433
REMARK  181  A    between atoms: _433  and  _434
REMARK  182  A    between atoms: _433  and  _436
REMARK  183  A    between atoms: _436  and  _437
REMARK  184  A    between atoms: _437  and  _438
REMARK  185  A    between atoms: _438  and  _439
REMARK  186  A    between atoms: _439  and  _440
REMARK  187  A    between atoms: _444  and  _446
REMARK  188  A    between atoms: _446  and  _447
REMARK  189  A    between atoms: _446  and  _449
REMARK  190  A    between atoms: _449  and  _450
REMARK  191  A    between atoms: _455  and  _456
REMARK  192  A    between atoms: _458  and  _460
REMARK  193  A    between atoms: _460  and  _461
REMARK  194  A    between atoms: _463  and  _465
REMARK  195  A    between atoms: _465  and  _466
REMARK  196  A    between atoms: _465  and  _468
REMARK  197  A    between atoms: _468  and  _469
REMARK  198  A    between atoms: _472  and  _474
REMARK  199  A    between atoms: _474  and  _475
REMARK  200  A    between atoms: _474  and  _477
REMARK  201  A    between atoms: _477  and  _478
REMARK  202  A    between atoms: _483  and  _484
REMARK  203  A    between atoms: _486  and  _488
REMARK  204  A    between atoms: _488  and  _489
REMARK  205  A    between atoms: _488  and  _491
REMARK  206  A    between atoms: _491  and  _492
REMARK                            x       y       z     vdW  Elec       q    Type
REMARK                         _______ _______ _______ _____ _____    ______ ____
ROOT
ATOM      1  O   HOH     1       9.866   3.508  31.930  0.00  0.00    +0.000 OA
ENDROOT
TORSDOF 0
REMARK  Name = ../refined-set-2016/1nfu/1nfu_pocket.pdb
REMARK  206 active torsions:
REMARK  status: ('A' for Active; 'I' for Inactive)
REMARK    1  A    between atoms: _1  and  _5
REMARK    2  A    between atoms: _5  and  _6
REMARK    3  A    between atoms: _5  and  _8
REMARK    4  A    between atoms: _8  and  _9
REMARK    5  A    between atoms: _12  and  _14
REMARK    6  A    between atoms: _14  and  _15
REMARK    7  A    between atoms: _14  and  _17
REMARK    8  A    between atoms: _20  and  _22
REMARK    9  A    between atoms: _22  and  _23
REMARK   10  A    between atoms: _22  and  _25
REMARK   11  A    between atoms: _25  and  _26
REMARK   12  A    between atoms: _32  and  _34
REMARK   13  A    between atoms: _34  and  _35
REMARK   14  A    between atoms: _34  and  _37
REMARK   15  A    between atoms: _37  and  _38
REMARK   16  A    between atoms: _43  and  _45
REMARK   17  A    between atoms: _45  and  _46
REMARK   18  A    between atoms: _45  and  _48
REMARK   19  A    between atoms: _48  and  _49
REMARK   20  A    between atoms: _49  and  _50
REMARK   21  A    between atoms: _55  and  _57
REMARK   22  A    between atoms: _57  and  _58
REMARK   23  A    between atoms: _57  and  _60
REMARK   24  A    between atoms: _60  and  _61
REMARK   25  A    between atoms: _64  and  _66
REMARK   26  A    between atoms: _66  and  _67
REMARK   27  A    between atoms: _66  and  _69
REMARK   28  A    between atoms: _69  and  _70
REMARK   29  A    between atoms: _70  and  _71
REMARK   30  A    between atoms: _71  and  _72
REMARK   31  A    between atoms: _72  and  _73
REMARK   32  A    between atoms: _77  and  _79
REMARK   33  A    between atoms: _79  and  _80
REMARK   34  A    between atoms: _79  and  _82
REMARK   35  A    between atoms: _82  and  _83
REMARK   36  A    between atoms: _83  and  _84
REMARK   37  A    between atoms: _87  and  _89
REMARK   38  A    between atoms: _89  and  _90
REMARK   39  A    between atoms: _89  and  _92
REMARK   40  A    between atoms: _92  and  _93
REMARK   41  A    between atoms: _96  and  _98
REMARK   42  A    between atoms: _98  and  _99
REMARK   43  A    between atoms: _98  and  _101
REMARK   44  A    between atoms: _101  and  _102
REMARK   45  A    between atoms: _107  and  _108
REMARK   46  A    between atoms: _110  and  _112
REMARK   47  A    between atoms: _112  and  _113
REMARK   48  A    between atoms: _112  and  _115
REMARK   49  A    between atoms: _115  and  _116
REMARK   50  A    between atoms: _119  and  _121
REMARK   51  A    between atoms: _121  and  _122
REMARK   52  A    between atoms: _121  and  _124
REMARK   53  A    between atoms: _127  and  _129
REMARK   54  A    between atoms: _129  and  _130
REMARK   55  A    between atoms: _129  and  _132
REMARK   56  A    between atoms: _132  and  _133
REMARK   57  A    between atoms: _133  and  _134
REMARK   58  A    between atoms: _134  and  _135
REMARK   59  A    between atoms: _144  and  _146
REMARK   60  A    between atoms: _146  and  _147
REMARK   61  A    between atoms: _146  and  _149
REMARK   62  A    between atoms: _149  and  _150
REMARK   63  A    between atoms: _155  and  _157
REMARK   64  A    between atoms: _157  and  _158
REMARK   65  A    between atoms: _157  and  _160
REMARK   66  A    between atoms: _160  and  _161
REMARK   67  A    between atoms: _161  and  _162
REMARK   68  A    between atoms: _165  and  _167
REMARK   69  A    between atoms: _167  and  _168
REMARK   70  A    between atoms: _167  and  _170
REMARK   71  A    between atoms: _170  and  _171
REMARK   72  A    between atoms: _171  and  _172
REMARK   73  A    between atoms: _172  and  _173
REMARK   74  A    between atoms: _173  and  _174
REMARK   75  A    between atoms: _178  and  _180
REMARK   76  A    between atoms: _180  and  _181
REMARK   77  A    between atoms: _180  and  _183
REMARK   78  A    between atoms: _186  and  _188
REMARK   79  A    between atoms: _188  and  _189
REMARK   80  A    between atoms: _188  and  _191
REMARK   81  A    between atoms: _191  and  _192
REMARK   82  A    between atoms: _194  and  _196
REMARK   83  A    between atoms: _196  and  _197
REMARK   84  A    between atoms: _196  and  _199
REMARK   85  A    between atoms: _199  and  _200
REMARK   86  A    between atoms: _202  and  _204
REMARK   87  A    between atoms: _204  and  _205
REMARK   88  A    between atoms: _204  and  _207
REMARK   89  A    between atoms: _207  and  _208
REMARK   90  A    between atoms: _214  and  _216
REMARK   91  A    between atoms: _216  and  _217
REMARK   92  A    between atoms: _216  and  _219
REMARK   93  A    between atoms: _219  and  _220
REMARK   94  A    between atoms: _223  and  _225
REMARK   95  A    between atoms: _225  and  _226
REMARK   96  A    between atoms: _225  and  _228
REMARK   97  A    between atoms: _228  and  _229
REMARK   98  A    between atoms: _235  and  _237
REMARK   99  A    between atoms: _237  and  _238
REMARK  100  A    between atoms: _237  and  _240
REMARK  101  A    between atoms: _242  and  _244
REMARK  102  A    between atoms: _244  and  _245
REMARK  103  A    between atoms: _248  and  _250
REMARK  104  A    between atoms: _250  and  _251
REMARK  105  A    between atoms: _253  and  _255
REMARK  106  A    between atoms: _255  and  _256
REMARK  107  A    between atoms: _255  and  _258
REMARK  108  A    between atoms: _258  and  _259
REMARK  109  A    between atoms: _259  and  _260
REMARK  110  A    between atoms: _263  and  _265
REMARK  111  A    between atoms: _265  and  _266
REMARK  112  A    between atoms: _265  and  _268
REMARK  113  A    between atoms: _268  and  _269
REMARK  114  A    between atoms: _272  and  _274
REMARK  115  A    between atoms: _274  and  _275
REMARK  116  A    between atoms: _278  and  _280
REMARK  117  A    between atoms: _280  and  _281
REMARK  118  A    between atoms: _280  and  _283
REMARK  119  A    between atoms: _283  and  _284
REMARK  120  A    between atoms: _284  and  _407
REMARK  121  A    between atoms: _285  and  _287
REMARK  122  A    between atoms: _287  and  _288
REMARK  123  A    between atoms: _287  and  _290
REMARK  124  A    between atoms: _290  and  _291
REMARK  125  A    between atoms: _291  and  _292
REMARK  126  A    between atoms: _297  and  _299
REMARK  127  A    between atoms: _299  and  _300
REMARK  128  A    between atoms: _302  and  _304
REMARK  129  A    between atoms: _304  and  _305
REMARK  130  A    between atoms: _304  and  _307
REMARK  131  A    between atoms: _307  and  _308
REMARK  132  A    between atoms: _311  and  _313
REMARK  133  A    between atoms: _313  and  _314
REMARK  134  A    between atoms: _313  and  _316
REMARK  135  A    between atoms: _316  and  _317
REMARK  136  A    between atoms: _319  and  _321
REMARK  137  A    between atoms: _321  and  _322
REMARK  138  A    between atoms: _324  and  _326
REMARK  139  A    between atoms: _326  and  _327
REMARK  140  A    between atoms: _329  and  _331
REMARK  141  A    between atoms: _331  and  _332
REMARK  142  A    between atoms: _331  and  _334
REMARK  143  A    between atoms: _334  and  _335
REMARK  144  A    between atoms: _340  and  _342
REMARK  145  A    between atoms: _342  and  _343
REMARK  146  A    between atoms: _342  and  _345
REMARK  147  A    between atoms: _345  and  _346
REMARK  148  A    between atoms: _349  and  _351
REMARK  149  A    between atoms: _351  and  _352
REMARK  150  A    between atoms: _351  and  _354
REMARK  151  A    between atoms: _357  and  _359
REMARK  152  A    between atoms: _359  and  _360
REMARK  153  A    between atoms: _359  and  _362
REMARK  154  A    between atoms: _362  and  _363
REMARK  155  A    between atoms: _365  and  _367
REMARK  156  A    between atoms: _367  and  _368
REMARK  157  A    between atoms: _367  and  _370
REMARK  158  A    between atoms: _370  and  _371
REMARK  159  A    between atoms: _381  and  _383
REMARK  160  A    between atoms: _383  and  _384
REMARK  161  A    between atoms: _386  and  _388
REMARK  162  A    between atoms: _388  and  _389
REMARK  163  A    between atoms: _388  and  _391
REMARK  164  A    between atoms: _391  and  _392
REMARK  165  A    between atoms: _392  and  _393
REMARK  166  A    between atoms: _396  and  _398
REMARK  167  A    between atoms: _398  and  _399
REMARK  168  A    between atoms: _401  and  _403
REMARK  169  A    between atoms: _403  and  _404
REMARK  170  A    between atoms: _403  and  _406
REMARK  171  A    between atoms: _406  and  _407
REMARK  172  A    between atoms: _408  and  _410
REMARK  173  A    between atoms: _410  and  _411
REMARK  174  A    between atoms: _414  and  _416
REMARK  175  A    between atoms: _416  and  _417
REMARK  176  A    between atoms: _416  and  _419
REMARK  177  A    between atoms: _419  and  _420
REMARK  178  A    between atoms: _420  and  _421
REMARK  179  A    between atoms: _421  and  _422
REMARK  180  A    between atoms: _431  and  _433
REMARK  181  A    between atoms: _433  and  _434
REMARK  182  A    between atoms: _433  and  _436
REMARK  183  A    between atoms: _436  and  _437
REMARK  184  A    between atoms: _437  and  _438
REMARK  185  A    between atoms: _438  and  _439
REMARK  186  A    between atoms: _439  and  _440
REMARK  187  A    between atoms: _444  and  _446
REMARK  188  A    between atoms: _446  and  _447
REMARK  189  A    between atoms: _446  and  _449
REMARK  190  A    between atoms: _449  and  _450
REMARK  191  A    between atoms: _455  and  _456
REMARK  192  A    between atoms: _458  and  _460
REMARK  193  A    between atoms: _460  and  _461
REMARK  194  A    between atoms: _463  and  _465
REMARK  195  A    between atoms: _465  and  _466
REMARK  196  A    between atoms: _465  and  _468
REMARK  197  A    between atoms: _468  and  _469
REMARK  198  A    between atoms: _472  and  _474
REMARK  199  A    between atoms: _474  and  _475
REMARK  200  A    between atoms: _474  and  _477
REMARK  201  A    between atoms: _477  and  _478
REMARK  202  A    between atoms: _483  and  _484
REMARK  203  A    between atoms: _486  and  _488
REMARK  204  A    between atoms: _488  and  _489
REMARK  205  A    between atoms: _488  and  _491
REMARK  206  A    between atoms: _491  and  _492
REMARK                            x       y       z     vdW  Elec       q    Type
REMARK                         _______ _______ _______ _____ _____    ______ ____
ROOT
ATOM      1  O   HOH     1       6.941   3.228  29.317  0.00  0.00    +0.000 OA
ENDROOT
TORSDOF 0
REMARK  Name = ../refined-set-2016/1nfu/1nfu_pocket.pdb
REMARK  206 active torsions:
REMARK  status: ('A' for Active; 'I' for Inactive)
REMARK    1  A    between atoms: _1  and  _5
REMARK    2  A    between atoms: _5  and  _6
REMARK    3  A    between atoms: _5  and  _8
REMARK    4  A    between atoms: _8  and  _9
REMARK    5  A    between atoms: _12  and  _14
REMARK    6  A    between atoms: _14  and  _15
REMARK    7  A    between atoms: _14  and  _17
REMARK    8  A    between atoms: _20  and  _22
REMARK    9  A    between atoms: _22  and  _23
REMARK   10  A    between atoms: _22  and  _25
REMARK   11  A    between atoms: _25  and  _26
REMARK   12  A    between atoms: _32  and  _34
REMARK   13  A    between atoms: _34  and  _35
REMARK   14  A    between atoms: _34  and  _37
REMARK   15  A    between atoms: _37  and  _38
REMARK   16  A    between atoms: _43  and  _45
REMARK   17  A    between atoms: _45  and  _46
REMARK   18  A    between atoms: _45  and  _48
REMARK   19  A    between atoms: _48  and  _49
REMARK   20  A    between atoms: _49  and  _50
REMARK   21  A    between atoms: _55  and  _57
REMARK   22  A    between atoms: _57  and  _58
REMARK   23  A    between atoms: _57  and  _60
REMARK   24  A    between atoms: _60  and  _61
REMARK   25  A    between atoms: _64  and  _66
REMARK   26  A    between atoms: _66  and  _67
REMARK   27  A    between atoms: _66  and  _69
REMARK   28  A    between atoms: _69  and  _70
REMARK   29  A    between atoms: _70  and  _71
REMARK   30  A    between atoms: _71  and  _72
REMARK   31  A    between atoms: _72  and  _73
REMARK   32  A    between atoms: _77  and  _79
REMARK   33  A    between atoms: _79  and  _80
REMARK   34  A    between atoms: _79  and  _82
REMARK   35  A    between atoms: _82  and  _83
REMARK   36  A    between atoms: _83  and  _84
REMARK   37  A    between atoms: _87  and  _89
REMARK   38  A    between atoms: _89  and  _90
REMARK   39  A    between atoms: _89  and  _92
REMARK   40  A    between atoms: _92  and  _93
REMARK   41  A    between atoms: _96  and  _98
REMARK   42  A    between atoms: _98  and  _99
REMARK   43  A    between atoms: _98  and  _101
REMARK   44  A    between atoms: _101  and  _102
REMARK   45  A    between atoms: _107  and  _108
REMARK   46  A    between atoms: _110  and  _112
REMARK   47  A    between atoms: _112  and  _113
REMARK   48  A    between atoms: _112  and  _115
REMARK   49  A    between atoms: _115  and  _116
REMARK   50  A    between atoms: _119  and  _121
REMARK   51  A    between atoms: _121  and  _122
REMARK   52  A    between atoms: _121  and  _124
REMARK   53  A    between atoms: _127  and  _129
REMARK   54  A    between atoms: _129  and  _130
REMARK   55  A    between atoms: _129  and  _132
REMARK   56  A    between atoms: _132  and  _133
REMARK   57  A    between atoms: _133  and  _134
REMARK   58  A    between atoms: _134  and  _135
REMARK   59  A    between atoms: _144  and  _146
REMARK   60  A    between atoms: _146  and  _147
REMARK   61  A    between atoms: _146  and  _149
REMARK   62  A    between atoms: _149  and  _150
REMARK   63  A    between atoms: _155  and  _157
REMARK   64  A    between atoms: _157  and  _158
REMARK   65  A    between atoms: _157  and  _160
REMARK   66  A    between atoms: _160  and  _161
REMARK   67  A    between atoms: _161  and  _162
REMARK   68  A    between atoms: _165  and  _167
REMARK   69  A    between atoms: _167  and  _168
REMARK   70  A    between atoms: _167  and  _170
REMARK   71  A    between atoms: _170  and  _171
REMARK   72  A    between atoms: _171  and  _172
REMARK   73  A    between atoms: _172  and  _173
REMARK   74  A    between atoms: _173  and  _174
REMARK   75  A    between atoms: _178  and  _180
REMARK   76  A    between atoms: _180  and  _181
REMARK   77  A    between atoms: _180  and  _183
REMARK   78  A    between atoms: _186  and  _188
REMARK   79  A    between atoms: _188  and  _189
REMARK   80  A    between atoms: _188  and  _191
REMARK   81  A    between atoms: _191  and  _192
REMARK   82  A    between atoms: _194  and  _196
REMARK   83  A    between atoms: _196  and  _197
REMARK   84  A    between atoms: _196  and  _199
REMARK   85  A    between atoms: _199  and  _200
REMARK   86  A    between atoms: _202  and  _204
REMARK   87  A    between atoms: _204  and  _205
REMARK   88  A    between atoms: _204  and  _207
REMARK   89  A    between atoms: _207  and  _208
REMARK   90  A    between atoms: _214  and  _216
REMARK   91  A    between atoms: _216  and  _217
REMARK   92  A    between atoms: _216  and  _219
REMARK   93  A    between atoms: _219  and  _220
REMARK   94  A    between atoms: _223  and  _225
REMARK   95  A    between atoms: _225  and  _226
REMARK   96  A    between atoms: _225  and  _228
REMARK   97  A    between atoms: _228  and  _229
REMARK   98  A    between atoms: _235  and  _237
REMARK   99  A    between atoms: _237  and  _238
REMARK  100  A    between atoms: _237  and  _240
REMARK  101  A    between atoms: _242  and  _244
REMARK  102  A    between atoms: _244  and  _245
REMARK  103  A    between atoms: _248  and  _250
REMARK  104  A    between atoms: _250  and  _251
REMARK  105  A    between atoms: _253  and  _255
REMARK  106  A    between atoms: _255  and  _256
REMARK  107  A    between atoms: _255  and  _258
REMARK  108  A    between atoms: _258  and  _259
REMARK  109  A    between atoms: _259  and  _260
REMARK  110  A    between atoms: _263  and  _265
REMARK  111  A    between atoms: _265  and  _266
REMARK  112  A    between atoms: _265  and  _268
REMARK  113  A    between atoms: _268  and  _269
REMARK  114  A    between atoms: _272  and  _274
REMARK  115  A    between atoms: _274  and  _275
REMARK  116  A    between atoms: _278  and  _280
REMARK  117  A    between atoms: _280  and  _281
REMARK  118  A    between atoms: _280  and  _283
REMARK  119  A    between atoms: _283  and  _284
REMARK  120  A    between atoms: _284  and  _407
REMARK  121  A    between atoms: _285  and  _287
REMARK  122  A    between atoms: _287  and  _288
REMARK  123  A    between atoms: _287  and  _290
REMARK  124  A    between atoms: _290  and  _291
REMARK  125  A    between atoms: _291  and  _292
REMARK  126  A    between atoms: _297  and  _299
REMARK  127  A    between atoms: _299  and  _300
REMARK  128  A    between atoms: _302  and  _304
REMARK  129  A    between atoms: _304  and  _305
REMARK  130  A    between atoms: _304  and  _307
REMARK  131  A    between atoms: _307  and  _308
REMARK  132  A    between atoms: _311  and  _313
REMARK  133  A    between atoms: _313  and  _314
REMARK  134  A    between atoms: _313  and  _316
REMARK  135  A    between atoms: _316  and  _317
REMARK  136  A    between atoms: _319  and  _321
REMARK  137  A    between atoms: _321  and  _322
REMARK  138  A    between atoms: _324  and  _326
REMARK  139  A    between atoms: _326  and  _327
REMARK  140  A    between atoms: _329  and  _331
REMARK  141  A    between atoms: _331  and  _332
REMARK  142  A    between atoms: _331  and  _334
REMARK  143  A    between atoms: _334  and  _335
REMARK  144  A    between atoms: _340  and  _342
REMARK  145  A    between atoms: _342  and  _343
REMARK  146  A    between atoms: _342  and  _345
REMARK  147  A    between atoms: _345  and  _346
REMARK  148  A    between atoms: _349  and  _351
REMARK  149  A    between atoms: _351  and  _352
REMARK  150  A    between atoms: _351  and  _354
REMARK  151  A    between atoms: _357  and  _359
REMARK  152  A    between atoms: _359  and  _360
REMARK  153  A    between atoms: _359  and  _362
REMARK  154  A    between atoms: _362  and  _363
REMARK  155  A    between atoms: _365  and  _367
REMARK  156  A    between atoms: _367  and  _368
REMARK  157  A    between atoms: _367  and  _370
REMARK  158  A    between atoms: _370  and  _371
REMARK  159  A    between atoms: _381  and  _383
REMARK  160  A    between atoms: _383  and  _384
REMARK  161  A    between atoms: _386  and  _388
REMARK  162  A    between atoms: _388  and  _389
REMARK  163  A    between atoms: _388  and  _391
REMARK  164  A    between atoms: _391  and  _392
REMARK  165  A    between atoms: _392  and  _393
REMARK  166  A    between atoms: _396  and  _398
REMARK  167  A    between atoms: _398  and  _399
REMARK  168  A    between atoms: _401  and  _403
REMARK  169  A    between atoms: _403  and  _404
REMARK  170  A    between atoms: _403  and  _406
REMARK  171  A    between atoms: _406  and  _407
REMARK  172  A    between atoms: _408  and  _410
REMARK  173  A    between atoms: _410  and  _411
REMARK  174  A    between atoms: _414  and  _416
REMARK  175  A    between atoms: _416  and  _417
REMARK  176  A    between atoms: _416  and  _419
REMARK  177  A    between atoms: _419  and  _420
REMARK  178  A    between atoms: _420  and  _421
REMARK  179  A    between atoms: _421  and  _422
REMARK  180  A    between atoms: _431  and  _433
REMARK  181  A    between atoms: _433  and  _434
REMARK  182  A    between atoms: _433  and  _436
REMARK  183  A    between atoms: _436  and  _437
REMARK  184  A    between atoms: _437  and  _438
REMARK  185  A    between atoms: _438  and  _439
REMARK  186  A    between atoms: _439  and  _440
REMARK  187  A    between atoms: _444  and  _446
REMARK  188  A    between atoms: _446  and  _447
REMARK  189  A    between atoms: _446  and  _449
REMARK  190  A    between atoms: _449  and  _450
REMARK  191  A    between atoms: _455  and  _456
REMARK  192  A    between atoms: _458  and  _460
REMARK  193  A    between atoms: _460  and  _461
REMARK  194  A    between atoms: _463  and  _465
REMARK  195  A    between atoms: _465  and  _466
REMARK  196  A    between atoms: _465  and  _468
REMARK  197  A    between atoms: _468  and  _469
REMARK  198  A    between atoms: _472  and  _474
REMARK  199  A    between atoms: _474  and  _475
REMARK  200  A    between atoms: _474  and  _477
REMARK  201  A    between atoms: _477  and  _478
REMARK  202  A    between atoms: _483  and  _484
REMARK  203  A    between atoms: _486  and  _488
REMARK  204  A    between atoms: _488  and  _489
REMARK  205  A    between atoms: _488  and  _491
REMARK  206  A    between atoms: _491  and  _492
REMARK                            x       y       z     vdW  Elec       q    Type
REMARK                         _______ _______ _______ _____ _____    ______ ____
ROOT
ATOM      1  O   HOH     1      10.269  -1.576  25.114  0.00  0.00    +0.000 OA
ENDROOT
TORSDOF 0
REMARK  Name = ../refined-set-2016/1nfu/1nfu_pocket.pdb
REMARK  206 active torsions:
REMARK  status: ('A' for Active; 'I' for Inactive)
REMARK    1  A    between atoms: _1  and  _5
REMARK    2  A    between atoms: _5  and  _6
REMARK    3  A    between atoms: _5  and  _8
REMARK    4  A    between atoms: _8  and  _9
REMARK    5  A    between atoms: _12  and  _14
REMARK    6  A    between atoms: _14  and  _15
REMARK    7  A    between atoms: _14  and  _17
REMARK    8  A    between atoms: _20  and  _22
REMARK    9  A    between atoms: _22  and  _23
REMARK   10  A    between atoms: _22  and  _25
REMARK   11  A    between atoms: _25  and  _26
REMARK   12  A    between atoms: _32  and  _34
REMARK   13  A    between atoms: _34  and  _35
REMARK   14  A    between atoms: _34  and  _37
REMARK   15  A    between atoms: _37  and  _38
REMARK   16  A    between atoms: _43  and  _45
REMARK   17  A    between atoms: _45  and  _46
REMARK   18  A    between atoms: _45  and  _48
REMARK   19  A    between atoms: _48  and  _49
REMARK   20  A    between atoms: _49  and  _50
REMARK   21  A    between atoms: _55  and  _57
REMARK   22  A    between atoms: _57  and  _58
REMARK   23  A    between atoms: _57  and  _60
REMARK   24  A    between atoms: _60  and  _61
REMARK   25  A    between atoms: _64  and  _66
REMARK   26  A    between atoms: _66  and  _67
REMARK   27  A    between atoms: _66  and  _69
REMARK   28  A    between atoms: _69  and  _70
REMARK   29  A    between atoms: _70  and  _71
REMARK   30  A    between atoms: _71  and  _72
REMARK   31  A    between atoms: _72  and  _73
REMARK   32  A    between atoms: _77  and  _79
REMARK   33  A    between atoms: _79  and  _80
REMARK   34  A    between atoms: _79  and  _82
REMARK   35  A    between atoms: _82  and  _83
REMARK   36  A    between atoms: _83  and  _84
REMARK   37  A    between atoms: _87  and  _89
REMARK   38  A    between atoms: _89  and  _90
REMARK   39  A    between atoms: _89  and  _92
REMARK   40  A    between atoms: _92  and  _93
REMARK   41  A    between atoms: _96  and  _98
REMARK   42  A    between atoms: _98  and  _99
REMARK   43  A    between atoms: _98  and  _101
REMARK   44  A    between atoms: _101  and  _102
REMARK   45  A    between atoms: _107  and  _108
REMARK   46  A    between atoms: _110  and  _112
REMARK   47  A    between atoms: _112  and  _113
REMARK   48  A    between atoms: _112  and  _115
REMARK   49  A    between atoms: _115  and  _116
REMARK   50  A    between atoms: _119  and  _121
REMARK   51  A    between atoms: _121  and  _122
REMARK   52  A    between atoms: _121  and  _124
REMARK   53  A    between atoms: _127  and  _129
REMARK   54  A    between atoms: _129  and  _130
REMARK   55  A    between atoms: _129  and  _132
REMARK   56  A    between atoms: _132  and  _133
REMARK   57  A    between atoms: _133  and  _134
REMARK   58  A    between atoms: _134  and  _135
REMARK   59  A    between atoms: _144  and  _146
REMARK   60  A    between atoms: _146  and  _147
REMARK   61  A    between atoms: _146  and  _149
REMARK   62  A    between atoms: _149  and  _150
REMARK   63  A    between atoms: _155  and  _157
REMARK   64  A    between atoms: _157  and  _158
REMARK   65  A    between atoms: _157  and  _160
REMARK   66  A    between atoms: _160  and  _161
REMARK   67  A    between atoms: _161  and  _162
REMARK   68  A    between atoms: _165  and  _167
REMARK   69  A    between atoms: _167  and  _168
REMARK   70  A    between atoms: _167  and  _170
REMARK   71  A    between atoms: _170  and  _171
REMARK   72  A    between atoms: _171  and  _172
REMARK   73  A    between atoms: _172  and  _173
REMARK   74  A    between atoms: _173  and  _174
REMARK   75  A    between atoms: _178  and  _180
REMARK   76  A    between atoms: _180  and  _181
REMARK   77  A    between atoms: _180  and  _183
REMARK   78  A    between atoms: _186  and  _188
REMARK   79  A    between atoms: _188  and  _189
REMARK   80  A    between atoms: _188  and  _191
REMARK   81  A    between atoms: _191  and  _192
REMARK   82  A    between atoms: _194  and  _196
REMARK   83  A    between atoms: _196  and  _197
REMARK   84  A    between atoms: _196  and  _199
REMARK   85  A    between atoms: _199  and  _200
REMARK   86  A    between atoms: _202  and  _204
REMARK   87  A    between atoms: _204  and  _205
REMARK   88  A    between atoms: _204  and  _207
REMARK   89  A    between atoms: _207  and  _208
REMARK   90  A    between atoms: _214  and  _216
REMARK   91  A    between atoms: _216  and  _217
REMARK   92  A    between atoms: _216  and  _219
REMARK   93  A    between atoms: _219  and  _220
REMARK   94  A    between atoms: _223  and  _225
REMARK   95  A    between atoms: _225  and  _226
REMARK   96  A    between atoms: _225  and  _228
REMARK   97  A    between atoms: _228  and  _229
REMARK   98  A    between atoms: _235  and  _237
REMARK   99  A    between atoms: _237  and  _238
REMARK  100  A    between atoms: _237  and  _240
REMARK  101  A    between atoms: _242  and  _244
REMARK  102  A    between atoms: _244  and  _245
REMARK  103  A    between atoms: _248  and  _250
REMARK  104  A    between atoms: _250  and  _251
REMARK  105  A    between atoms: _253  and  _255
REMARK  106  A    between atoms: _255  and  _256
REMARK  107  A    between atoms: _255  and  _258
REMARK  108  A    between atoms: _258  and  _259
REMARK  109  A    between atoms: _259  and  _260
REMARK  110  A    between atoms: _263  and  _265
REMARK  111  A    between atoms: _265  and  _266
REMARK  112  A    between atoms: _265  and  _268
REMARK  113  A    between atoms: _268  and  _269
REMARK  114  A    between atoms: _272  and  _274
REMARK  115  A    between atoms: _274  and  _275
REMARK  116  A    between atoms: _278  and  _280
REMARK  117  A    between atoms: _280  and  _281
REMARK  118  A    between atoms: _280  and  _283
REMARK  119  A    between atoms: _283  and  _284
REMARK  120  A    between atoms: _284  and  _407
REMARK  121  A    between atoms: _285  and  _287
REMARK  122  A    between atoms: _287  and  _288
REMARK  123  A    between atoms: _287  and  _290
REMARK  124  A    between atoms: _290  and  _291
REMARK  125  A    between atoms: _291  and  _292
REMARK  126  A    between atoms: _297  and  _299
REMARK  127  A    between atoms: _299  and  _300
REMARK  128  A    between atoms: _302  and  _304
REMARK  129  A    between atoms: _304  and  _305
REMARK  130  A    between atoms: _304  and  _307
REMARK  131  A    between atoms: _307  and  _308
REMARK  132  A    between atoms: _311  and  _313
REMARK  133  A    between atoms: _313  and  _314
REMARK  134  A    between atoms: _313  and  _316
REMARK  135  A    between atoms: _316  and  _317
REMARK  136  A    between atoms: _319  and  _321
REMARK  137  A    between atoms: _321  and  _322
REMARK  138  A    between atoms: _324  and  _326
REMARK  139  A    between atoms: _326  and  _327
REMARK  140  A    between atoms: _329  and  _331
REMARK  141  A    between atoms: _331  and  _332
REMARK  142  A    between atoms: _331  and  _334
REMARK  143  A    between atoms: _334  and  _335
REMARK  144  A    between atoms: _340  and  _342
REMARK  145  A    between atoms: _342  and  _343
REMARK  146  A    between atoms: _342  and  _345
REMARK  147  A    between atoms: _345  and  _346
REMARK  148  A    between atoms: _349  and  _351
REMARK  149  A    between atoms: _351  and  _352
REMARK  150  A    between atoms: _351  and  _354
REMARK  151  A    between atoms: _357  and  _359
REMARK  152  A    between atoms: _359  and  _360
REMARK  153  A    between atoms: _359  and  _362
REMARK  154  A    between atoms: _362  and  _363
REMARK  155  A    between atoms: _365  and  _367
REMARK  156  A    between atoms: _367  and  _368
REMARK  157  A    between atoms: _367  and  _370
REMARK  158  A    between atoms: _370  and  _371
REMARK  159  A    between atoms: _381  and  _383
REMARK  160  A    between atoms: _383  and  _384
REMARK  161  A    between atoms: _386  and  _388
REMARK  162  A    between atoms: _388  and  _389
REMARK  163  A    between atoms: _388  and  _391
REMARK  164  A    between atoms: _391  and  _392
REMARK  165  A    between atoms: _392  and  _393
REMARK  166  A    between atoms: _396  and  _398
REMARK  167  A    between atoms: _398  and  _399
REMARK  168  A    between atoms: _401  and  _403
REMARK  169  A    between atoms: _403  and  _404
REMARK  170  A    between atoms: _403  and  _406
REMARK  171  A    between atoms: _406  and  _407
REMARK  172  A    between atoms: _408  and  _410
REMARK  173  A    between atoms: _410  and  _411
REMARK  174  A    between atoms: _414  and  _416
REMARK  175  A    between atoms: _416  and  _417
REMARK  176  A    between atoms: _416  and  _419
REMARK  177  A    between atoms: _419  and  _420
REMARK  178  A    between atoms: _420  and  _421
REMARK  179  A    between atoms: _421  and  _422
REMARK  180  A    between atoms: _431  and  _433
REMARK  181  A    between atoms: _433  and  _434
REMARK  182  A    between atoms: _433  and  _436
REMARK  183  A    between atoms: _436  and  _437
REMARK  184  A    between atoms: _437  and  _438
REMARK  185  A    between atoms: _438  and  _439
REMARK  186  A    between atoms: _439  and  _440
REMARK  187  A    between atoms: _444  and  _446
REMARK  188  A    between atoms: _446  and  _447
REMARK  189  A    between atoms: _446  and  _449
REMARK  190  A    between atoms: _449  and  _450
REMARK  191  A    between atoms: _455  and  _456
REMARK  192  A    between atoms: _458  and  _460
REMARK  193  A    between atoms: _460  and  _461
REMARK  194  A    between atoms: _463  and  _465
REMARK  195  A    between atoms: _465  and  _466
REMARK  196  A    between atoms: _465  and  _468
REMARK  197  A    between atoms: _468  and  _469
REMARK  198  A    between atoms: _472  and  _474
REMARK  199  A    between atoms: _474  and  _475
REMARK  200  A    between atoms: _474  and  _477
REMARK  201  A    between atoms: _477  and  _478
REMARK  202  A    between atoms: _483  and  _484
REMARK  203  A    between atoms: _486  and  _488
REMARK  204  A    between atoms: _488  and  _489
REMARK  205  A    between atoms: _488  and  _491
REMARK  206  A    between atoms: _491  and  _492
REMARK                            x       y       z     vdW  Elec       q    Type
REMARK                         _______ _______ _______ _____ _____    ______ ____
ROOT
ATOM      1  O   HOH     1      12.117   4.280  33.063  0.00  0.00    +0.000 OA
ENDROOT
TORSDOF 0
REMARK  Name = ../refined-set-2016/1nfu/1nfu_pocket.pdb
REMARK  206 active torsions:
REMARK  status: ('A' for Active; 'I' for Inactive)
REMARK    1  A    between atoms: _1  and  _5
REMARK    2  A    between atoms: _5  and  _6
REMARK    3  A    between atoms: _5  and  _8
REMARK    4  A    between atoms: _8  and  _9
REMARK    5  A    between atoms: _12  and  _14
REMARK    6  A    between atoms: _14  and  _15
REMARK    7  A    between atoms: _14  and  _17
REMARK    8  A    between atoms: _20  and  _22
REMARK    9  A    between atoms: _22  and  _23
REMARK   10  A    between atoms: _22  and  _25
REMARK   11  A    between atoms: _25  and  _26
REMARK   12  A    between atoms: _32  and  _34
REMARK   13  A    between atoms: _34  and  _35
REMARK   14  A    between atoms: _34  and  _37
REMARK   15  A    between atoms: _37  and  _38
REMARK   16  A    between atoms: _43  and  _45
REMARK   17  A    between atoms: _45  and  _46
REMARK   18  A    between atoms: _45  and  _48
REMARK   19  A    between atoms: _48  and  _49
REMARK   20  A    between atoms: _49  and  _50
REMARK   21  A    between atoms: _55  and  _57
REMARK   22  A    between atoms: _57  and  _58
REMARK   23  A    between atoms: _57  and  _60
REMARK   24  A    between atoms: _60  and  _61
REMARK   25  A    between atoms: _64  and  _66
REMARK   26  A    between atoms: _66  and  _67
REMARK   27  A    between atoms: _66  and  _69
REMARK   28  A    between atoms: _69  and  _70
REMARK   29  A    between atoms: _70  and  _71
REMARK   30  A    between atoms: _71  and  _72
REMARK   31  A    between atoms: _72  and  _73
REMARK   32  A    between atoms: _77  and  _79
REMARK   33  A    between atoms: _79  and  _80
REMARK   34  A    between atoms: _79  and  _82
REMARK   35  A    between atoms: _82  and  _83
REMARK   36  A    between atoms: _83  and  _84
REMARK   37  A    between atoms: _87  and  _89
REMARK   38  A    between atoms: _89  and  _90
REMARK   39  A    between atoms: _89  and  _92
REMARK   40  A    between atoms: _92  and  _93
REMARK   41  A    between atoms: _96  and  _98
REMARK   42  A    between atoms: _98  and  _99
REMARK   43  A    between atoms: _98  and  _101
REMARK   44  A    between atoms: _101  and  _102
REMARK   45  A    between atoms: _107  and  _108
REMARK   46  A    between atoms: _110  and  _112
REMARK   47  A    between atoms: _112  and  _113
REMARK   48  A    between atoms: _112  and  _115
REMARK   49  A    between atoms: _115  and  _116
REMARK   50  A    between atoms: _119  and  _121
REMARK   51  A    between atoms: _121  and  _122
REMARK   52  A    between atoms: _121  and  _124
REMARK   53  A    between atoms: _127  and  _129
REMARK   54  A    between atoms: _129  and  _130
REMARK   55  A    between atoms: _129  and  _132
REMARK   56  A    between atoms: _132  and  _133
REMARK   57  A    between atoms: _133  and  _134
REMARK   58  A    between atoms: _134  and  _135
REMARK   59  A    between atoms: _144  and  _146
REMARK   60  A    between atoms: _146  and  _147
REMARK   61  A    between atoms: _146  and  _149
REMARK   62  A    between atoms: _149  and  _150
REMARK   63  A    between atoms: _155  and  _157
REMARK   64  A    between atoms: _157  and  _158
REMARK   65  A    between atoms: _157  and  _160
REMARK   66  A    between atoms: _160  and  _161
REMARK   67  A    between atoms: _161  and  _162
REMARK   68  A    between atoms: _165  and  _167
REMARK   69  A    between atoms: _167  and  _168
REMARK   70  A    between atoms: _167  and  _170
REMARK   71  A    between atoms: _170  and  _171
REMARK   72  A    between atoms: _171  and  _172
REMARK   73  A    between atoms: _172  and  _173
REMARK   74  A    between atoms: _173  and  _174
REMARK   75  A    between atoms: _178  and  _180
REMARK   76  A    between atoms: _180  and  _181
REMARK   77  A    between atoms: _180  and  _183
REMARK   78  A    between atoms: _186  and  _188
REMARK   79  A    between atoms: _188  and  _189
REMARK   80  A    between atoms: _188  and  _191
REMARK   81  A    between atoms: _191  and  _192
REMARK   82  A    between atoms: _194  and  _196
REMARK   83  A    between atoms: _196  and  _197
REMARK   84  A    between atoms: _196  and  _199
REMARK   85  A    between atoms: _199  and  _200
REMARK   86  A    between atoms: _202  and  _204
REMARK   87  A    between atoms: _204  and  _205
REMARK   88  A    between atoms: _204  and  _207
REMARK   89  A    between atoms: _207  and  _208
REMARK   90  A    between atoms: _214  and  _216
REMARK   91  A    between atoms: _216  and  _217
REMARK   92  A    between atoms: _216  and  _219
REMARK   93  A    between atoms: _219  and  _220
REMARK   94  A    between atoms: _223  and  _225
REMARK   95  A    between atoms: _225  and  _226
REMARK   96  A    between atoms: _225  and  _228
REMARK   97  A    between atoms: _228  and  _229
REMARK   98  A    between atoms: _235  and  _237
REMARK   99  A    between atoms: _237  and  _238
REMARK  100  A    between atoms: _237  and  _240
REMARK  101  A    between atoms: _242  and  _244
REMARK  102  A    between atoms: _244  and  _245
REMARK  103  A    between atoms: _248  and  _250
REMARK  104  A    between atoms: _250  and  _251
REMARK  105  A    between atoms: _253  and  _255
REMARK  106  A    between atoms: _255  and  _256
REMARK  107  A    between atoms: _255  and  _258
REMARK  108  A    between atoms: _258  and  _259
REMARK  109  A    between atoms: _259  and  _260
REMARK  110  A    between atoms: _263  and  _265
REMARK  111  A    between atoms: _265  and  _266
REMARK  112  A    between atoms: _265  and  _268
REMARK  113  A    between atoms: _268  and  _269
REMARK  114  A    between atoms: _272  and  _274
REMARK  115  A    between atoms: _274  and  _275
REMARK  116  A    between atoms: _278  and  _280
REMARK  117  A    between atoms: _280  and  _281
REMARK  118  A    between atoms: _280  and  _283
REMARK  119  A    between atoms: _283  and  _284
REMARK  120  A    between atoms: _284  and  _407
REMARK  121  A    between atoms: _285  and  _287
REMARK  122  A    between atoms: _287  and  _288
REMARK  123  A    between atoms: _287  and  _290
REMARK  124  A    between atoms: _290  and  _291
REMARK  125  A    between atoms: _291  and  _292
REMARK  126  A    between atoms: _297  and  _299
REMARK  127  A    between atoms: _299  and  _300
REMARK  128  A    between atoms: _302  and  _304
REMARK  129  A    between atoms: _304  and  _305
REMARK  130  A    between atoms: _304  and  _307
REMARK  131  A    between atoms: _307  and  _308
REMARK  132  A    between atoms: _311  and  _313
REMARK  133  A    between atoms: _313  and  _314
REMARK  134  A    between atoms: _313  and  _316
REMARK  135  A    between atoms: _316  and  _317
REMARK  136  A    between atoms: _319  and  _321
REMARK  137  A    between atoms: _321  and  _322
REMARK  138  A    between atoms: _324  and  _326
REMARK  139  A    between atoms: _326  and  _327
REMARK  140  A    between atoms: _329  and  _331
REMARK  141  A    between atoms: _331  and  _332
REMARK  142  A    between atoms: _331  and  _334
REMARK  143  A    between atoms: _334  and  _335
REMARK  144  A    between atoms: _340  and  _342
REMARK  145  A    between atoms: _342  and  _343
REMARK  146  A    between atoms: _342  and  _345
REMARK  147  A    between atoms: _345  and  _346
REMARK  148  A    between atoms: _349  and  _351
REMARK  149  A    between atoms: _351  and  _352
REMARK  150  A    between atoms: _351  and  _354
REMARK  151  A    between atoms: _357  and  _359
REMARK  152  A    between atoms: _359  and  _360
REMARK  153  A    between atoms: _359  and  _362
REMARK  154  A    between atoms: _362  and  _363
REMARK  155  A    between atoms: _365  and  _367
REMARK  156  A    between atoms: _367  and  _368
REMARK  157  A    between atoms: _367  and  _370
REMARK  158  A    between atoms: _370  and  _371
REMARK  159  A    between atoms: _381  and  _383
REMARK  160  A    between atoms: _383  and  _384
REMARK  161  A    between atoms: _386  and  _388
REMARK  162  A    between atoms: _388  and  _389
REMARK  163  A    between atoms: _388  and  _391
REMARK  164  A    between atoms: _391  and  _392
REMARK  165  A    between atoms: _392  and  _393
REMARK  166  A    between atoms: _396  and  _398
REMARK  167  A    between atoms: _398  and  _399
REMARK  168  A    between atoms: _401  and  _403
REMARK  169  A    between atoms: _403  and  _404
REMARK  170  A    between atoms: _403  and  _406
REMARK  171  A    between atoms: _406  and  _407
REMARK  172  A    between atoms: _408  and  _410
REMARK  173  A    between atoms: _410  and  _411
REMARK  174  A    between atoms: _414  and  _416
REMARK  175  A    between atoms: _416  and  _417
REMARK  176  A    between atoms: _416  and  _419
REMARK  177  A    between atoms: _419  and  _420
REMARK  178  A    between atoms: _420  and  _421
REMARK  179  A    between atoms: _421  and  _422
REMARK  180  A    between atoms: _431  and  _433
REMARK  181  A    between atoms: _433  and  _434
REMARK  182  A    between atoms: _433  and  _436
REMARK  183  A    between atoms: _436  and  _437
REMARK  184  A    between atoms: _437  and  _438
REMARK  185  A    between atoms: _438  and  _439
REMARK  186  A    between atoms: _439  and  _440
REMARK  187  A    between atoms: _444  and  _446
REMARK  188  A    between atoms: _446  and  _447
REMARK  189  A    between atoms: _446  and  _449
REMARK  190  A    between atoms: _449  and  _450
REMARK  191  A    between atoms: _455  and  _456
REMARK  192  A    between atoms: _458  and  _460
REMARK  193  A    between atoms: _460  and  _461
REMARK  194  A    between atoms: _463  and  _465
REMARK  195  A    between atoms: _465  and  _466
REMARK  196  A    between atoms: _465  and  _468
REMARK  197  A    between atoms: _468  and  _469
REMARK  198  A    between atoms: _472  and  _474
REMARK  199  A    between atoms: _474  and  _475
REMARK  200  A    between atoms: _474  and  _477
REMARK  201  A    between atoms: _477  and  _478
REMARK  202  A    between atoms: _483  and  _484
REMARK  203  A    between atoms: _486  and  _488
REMARK  204  A    between atoms: _488  and  _489
REMARK  205  A    between atoms: _488  and  _491
REMARK  206  A    between atoms: _491  and  _492
REMARK                            x       y       z     vdW  Elec       q    Type
REMARK                         _______ _______ _______ _____ _____    ______ ____
ROOT
ATOM      1  O   HOH     1       2.492   1.590  22.534  0.00  0.00    +0.000 OA
ENDROOT
TORSDOF 0
REMARK  Name = ../refined-set-2016/1nfu/1nfu_pocket.pdb
REMARK  206 active torsions:
REMARK  status: ('A' for Active; 'I' for Inactive)
REMARK    1  A    between atoms: _1  and  _5
REMARK    2  A    between atoms: _5  and  _6
REMARK    3  A    between atoms: _5  and  _8
REMARK    4  A    between atoms: _8  and  _9
REMARK    5  A    between atoms: _12  and  _14
REMARK    6  A    between atoms: _14  and  _15
REMARK    7  A    between atoms: _14  and  _17
REMARK    8  A    between atoms: _20  and  _22
REMARK    9  A    between atoms: _22  and  _23
REMARK   10  A    between atoms: _22  and  _25
REMARK   11  A    between atoms: _25  and  _26
REMARK   12  A    between atoms: _32  and  _34
REMARK   13  A    between atoms: _34  and  _35
REMARK   14  A    between atoms: _34  and  _37
REMARK   15  A    between atoms: _37  and  _38
REMARK   16  A    between atoms: _43  and  _45
REMARK   17  A    between atoms: _45  and  _46
REMARK   18  A    between atoms: _45  and  _48
REMARK   19  A    between atoms: _48  and  _49
REMARK   20  A    between atoms: _49  and  _50
REMARK   21  A    between atoms: _55  and  _57
REMARK   22  A    between atoms: _57  and  _58
REMARK   23  A    between atoms: _57  and  _60
REMARK   24  A    between atoms: _60  and  _61
REMARK   25  A    between atoms: _64  and  _66
REMARK   26  A    between atoms: _66  and  _67
REMARK   27  A    between atoms: _66  and  _69
REMARK   28  A    between atoms: _69  and  _70
REMARK   29  A    between atoms: _70  and  _71
REMARK   30  A    between atoms: _71  and  _72
REMARK   31  A    between atoms: _72  and  _73
REMARK   32  A    between atoms: _77  and  _79
REMARK   33  A    between atoms: _79  and  _80
REMARK   34  A    between atoms: _79  and  _82
REMARK   35  A    between atoms: _82  and  _83
REMARK   36  A    between atoms: _83  and  _84
REMARK   37  A    between atoms: _87  and  _89
REMARK   38  A    between atoms: _89  and  _90
REMARK   39  A    between atoms: _89  and  _92
REMARK   40  A    between atoms: _92  and  _93
REMARK   41  A    between atoms: _96  and  _98
REMARK   42  A    between atoms: _98  and  _99
REMARK   43  A    between atoms: _98  and  _101
REMARK   44  A    between atoms: _101  and  _102
REMARK   45  A    between atoms: _107  and  _108
REMARK   46  A    between atoms: _110  and  _112
REMARK   47  A    between atoms: _112  and  _113
REMARK   48  A    between atoms: _112  and  _115
REMARK   49  A    between atoms: _115  and  _116
REMARK   50  A    between atoms: _119  and  _121
REMARK   51  A    between atoms: _121  and  _122
REMARK   52  A    between atoms: _121  and  _124
REMARK   53  A    between atoms: _127  and  _129
REMARK   54  A    between atoms: _129  and  _130
REMARK   55  A    between atoms: _129  and  _132
REMARK   56  A    between atoms: _132  and  _133
REMARK   57  A    between atoms: _133  and  _134
REMARK   58  A    between atoms: _134  and  _135
REMARK   59  A    between atoms: _144  and  _146
REMARK   60  A    between atoms: _146  and  _147
REMARK   61  A    between atoms: _146  and  _149
REMARK   62  A    between atoms: _149  and  _150
REMARK   63  A    between atoms: _155  and  _157
REMARK   64  A    between atoms: _157  and  _158
REMARK   65  A    between atoms: _157  and  _160
REMARK   66  A    between atoms: _160  and  _161
REMARK   67  A    between atoms: _161  and  _162
REMARK   68  A    between atoms: _165  and  _167
REMARK   69  A    between atoms: _167  and  _168
REMARK   70  A    between atoms: _167  and  _170
REMARK   71  A    between atoms: _170  and  _171
REMARK   72  A    between atoms: _171  and  _172
REMARK   73  A    between atoms: _172  and  _173
REMARK   74  A    between atoms: _173  and  _174
REMARK   75  A    between atoms: _178  and  _180
REMARK   76  A    between atoms: _180  and  _181
REMARK   77  A    between atoms: _180  and  _183
REMARK   78  A    between atoms: _186  and  _188
REMARK   79  A    between atoms: _188  and  _189
REMARK   80  A    between atoms: _188  and  _191
REMARK   81  A    between atoms: _191  and  _192
REMARK   82  A    between atoms: _194  and  _196
REMARK   83  A    between atoms: _196  and  _197
REMARK   84  A    between atoms: _196  and  _199
REMARK   85  A    between atoms: _199  and  _200
REMARK   86  A    between atoms: _202  and  _204
REMARK   87  A    between atoms: _204  and  _205
REMARK   88  A    between atoms: _204  and  _207
REMARK   89  A    between atoms: _207  and  _208
REMARK   90  A    between atoms: _214  and  _216
REMARK   91  A    between atoms: _216  and  _217
REMARK   92  A    between atoms: _216  and  _219
REMARK   93  A    between atoms: _219  and  _220
REMARK   94  A    between atoms: _223  and  _225
REMARK   95  A    between atoms: _225  and  _226
REMARK   96  A    between atoms: _225  and  _228
REMARK   97  A    between atoms: _228  and  _229
REMARK   98  A    between atoms: _235  and  _237
REMARK   99  A    between atoms: _237  and  _238
REMARK  100  A    between atoms: _237  and  _240
REMARK  101  A    between atoms: _242  and  _244
REMARK  102  A    between atoms: _244  and  _245
REMARK  103  A    between atoms: _248  and  _250
REMARK  104  A    between atoms: _250  and  _251
REMARK  105  A    between atoms: _253  and  _255
REMARK  106  A    between atoms: _255  and  _256
REMARK  107  A    between atoms: _255  and  _258
REMARK  108  A    between atoms: _258  and  _259
REMARK  109  A    between atoms: _259  and  _260
REMARK  110  A    between atoms: _263  and  _265
REMARK  111  A    between atoms: _265  and  _266
REMARK  112  A    between atoms: _265  and  _268
REMARK  113  A    between atoms: _268  and  _269
REMARK  114  A    between atoms: _272  and  _274
REMARK  115  A    between atoms: _274  and  _275
REMARK  116  A    between atoms: _278  and  _280
REMARK  117  A    between atoms: _280  and  _281
REMARK  118  A    between atoms: _280  and  _283
REMARK  119  A    between atoms: _283  and  _284
REMARK  120  A    between atoms: _284  and  _407
REMARK  121  A    between atoms: _285  and  _287
REMARK  122  A    between atoms: _287  and  _288
REMARK  123  A    between atoms: _287  and  _290
REMARK  124  A    between atoms: _290  and  _291
REMARK  125  A    between atoms: _291  and  _292
REMARK  126  A    between atoms: _297  and  _299
REMARK  127  A    between atoms: _299  and  _300
REMARK  128  A    between atoms: _302  and  _304
REMARK  129  A    between atoms: _304  and  _305
REMARK  130  A    between atoms: _304  and  _307
REMARK  131  A    between atoms: _307  and  _308
REMARK  132  A    between atoms: _311  and  _313
REMARK  133  A    between atoms: _313  and  _314
REMARK  134  A    between atoms: _313  and  _316
REMARK  135  A    between atoms: _316  and  _317
REMARK  136  A    between atoms: _319  and  _321
REMARK  137  A    between atoms: _321  and  _322
REMARK  138  A    between atoms: _324  and  _326
REMARK  139  A    between atoms: _326  and  _327
REMARK  140  A    between atoms: _329  and  _331
REMARK  141  A    between atoms: _331  and  _332
REMARK  142  A    between atoms: _331  and  _334
REMARK  143  A    between atoms: _334  and  _335
REMARK  144  A    between atoms: _340  and  _342
REMARK  145  A    between atoms: _342  and  _343
REMARK  146  A    between atoms: _342  and  _345
REMARK  147  A    between atoms: _345  and  _346
REMARK  148  A    between atoms: _349  and  _351
REMARK  149  A    between atoms: _351  and  _352
REMARK  150  A    between atoms: _351  and  _354
REMARK  151  A    between atoms: _357  and  _359
REMARK  152  A    between atoms: _359  and  _360
REMARK  153  A    between atoms: _359  and  _362
REMARK  154  A    between atoms: _362  and  _363
REMARK  155  A    between atoms: _365  and  _367
REMARK  156  A    between atoms: _367  and  _368
REMARK  157  A    between atoms: _367  and  _370
REMARK  158  A    between atoms: _370  and  _371
REMARK  159  A    between atoms: _381  and  _383
REMARK  160  A    between atoms: _383  and  _384
REMARK  161  A    between atoms: _386  and  _388
REMARK  162  A    between atoms: _388  and  _389
REMARK  163  A    between atoms: _388  and  _391
REMARK  164  A    between atoms: _391  and  _392
REMARK  165  A    between atoms: _392  and  _393
REMARK  166  A    between atoms: _396  and  _398
REMARK  167  A    between atoms: _398  and  _399
REMARK  168  A    between atoms: _401  and  _403
REMARK  169  A    between atoms: _403  and  _404
REMARK  170  A    between atoms: _403  and  _406
REMARK  171  A    between atoms: _406  and  _407
REMARK  172  A    between atoms: _408  and  _410
REMARK  173  A    between atoms: _410  and  _411
REMARK  174  A    between atoms: _414  and  _416
REMARK  175  A    between atoms: _416  and  _417
REMARK  176  A    between atoms: _416  and  _419
REMARK  177  A    between atoms: _419  and  _420
REMARK  178  A    between atoms: _420  and  _421
REMARK  179  A    between atoms: _421  and  _422
REMARK  180  A    between atoms: _431  and  _433
REMARK  181  A    between atoms: _433  and  _434
REMARK  182  A    between atoms: _433  and  _436
REMARK  183  A    between atoms: _436  and  _437
REMARK  184  A    between atoms: _437  and  _438
REMARK  185  A    between atoms: _438  and  _439
REMARK  186  A    between atoms: _439  and  _440
REMARK  187  A    between atoms: _444  and  _446
REMARK  188  A    between atoms: _446  and  _447
REMARK  189  A    between atoms: _446  and  _449
REMARK  190  A    between atoms: _449  and  _450
REMARK  191  A    between atoms: _455  and  _456
REMARK  192  A    between atoms: _458  and  _460
REMARK  193  A    between atoms: _460  and  _461
REMARK  194  A    between atoms: _463  and  _465
REMARK  195  A    between atoms: _465  and  _466
REMARK  196  A    between atoms: _465  and  _468
REMARK  197  A    between atoms: _468  and  _469
REMARK  198  A    between atoms: _472  and  _474
REMARK  199  A    between atoms: _474  and  _475
REMARK  200  A    between atoms: _474  and  _477
REMARK  201  A    between atoms: _477  and  _478
REMARK  202  A    between atoms: _483  and  _484
REMARK  203  A    between atoms: _486  and  _488
REMARK  204  A    between atoms: _488  and  _489
REMARK  205  A    between atoms: _488  and  _491
REMARK  206  A    between atoms: _491  and  _492
REMARK                            x       y       z     vdW  Elec       q    Type
REMARK                         _______ _______ _______ _____ _____    ______ ____
ROOT
ATOM      1  O   HOH     1       9.654   3.803  28.493  0.00  0.00    +0.000 OA
ENDROOT
TORSDOF 0
REMARK  Name = ../refined-set-2016/1nfu/1nfu_pocket.pdb
REMARK  206 active torsions:
REMARK  status: ('A' for Active; 'I' for Inactive)
REMARK    1  A    between atoms: _1  and  _5
REMARK    2  A    between atoms: _5  and  _6
REMARK    3  A    between atoms: _5  and  _8
REMARK    4  A    between atoms: _8  and  _9
REMARK    5  A    between atoms: _12  and  _14
REMARK    6  A    between atoms: _14  and  _15
REMARK    7  A    between atoms: _14  and  _17
REMARK    8  A    between atoms: _20  and  _22
REMARK    9  A    between atoms: _22  and  _23
REMARK   10  A    between atoms: _22  and  _25
REMARK   11  A    between atoms: _25  and  _26
REMARK   12  A    between atoms: _32  and  _34
REMARK   13  A    between atoms: _34  and  _35
REMARK   14  A    between atoms: _34  and  _37
REMARK   15  A    between atoms: _37  and  _38
REMARK   16  A    between atoms: _43  and  _45
REMARK   17  A    between atoms: _45  and  _46
REMARK   18  A    between atoms: _45  and  _48
REMARK   19  A    between atoms: _48  and  _49
REMARK   20  A    between atoms: _49  and  _50
REMARK   21  A    between atoms: _55  and  _57
REMARK   22  A    between atoms: _57  and  _58
REMARK   23  A    between atoms: _57  and  _60
REMARK   24  A    between atoms: _60  and  _61
REMARK   25  A    between atoms: _64  and  _66
REMARK   26  A    between atoms: _66  and  _67
REMARK   27  A    between atoms: _66  and  _69
REMARK   28  A    between atoms: _69  and  _70
REMARK   29  A    between atoms: _70  and  _71
REMARK   30  A    between atoms: _71  and  _72
REMARK   31  A    between atoms: _72  and  _73
REMARK   32  A    between atoms: _77  and  _79
REMARK   33  A    between atoms: _79  and  _80
REMARK   34  A    between atoms: _79  and  _82
REMARK   35  A    between atoms: _82  and  _83
REMARK   36  A    between atoms: _83  and  _84
REMARK   37  A    between atoms: _87  and  _89
REMARK   38  A    between atoms: _89  and  _90
REMARK   39  A    between atoms: _89  and  _92
REMARK   40  A    between atoms: _92  and  _93
REMARK   41  A    between atoms: _96  and  _98
REMARK   42  A    between atoms: _98  and  _99
REMARK   43  A    between atoms: _98  and  _101
REMARK   44  A    between atoms: _101  and  _102
REMARK   45  A    between atoms: _107  and  _108
REMARK   46  A    between atoms: _110  and  _112
REMARK   47  A    between atoms: _112  and  _113
REMARK   48  A    between atoms: _112  and  _115
REMARK   49  A    between atoms: _115  and  _116
REMARK   50  A    between atoms: _119  and  _121
REMARK   51  A    between atoms: _121  and  _122
REMARK   52  A    between atoms: _121  and  _124
REMARK   53  A    between atoms: _127  and  _129
REMARK   54  A    between atoms: _129  and  _130
REMARK   55  A    between atoms: _129  and  _132
REMARK   56  A    between atoms: _132  and  _133
REMARK   57  A    between atoms: _133  and  _134
REMARK   58  A    between atoms: _134  and  _135
REMARK   59  A    between atoms: _144  and  _146
REMARK   60  A    between atoms: _146  and  _147
REMARK   61  A    between atoms: _146  and  _149
REMARK   62  A    between atoms: _149  and  _150
REMARK   63  A    between atoms: _155  and  _157
REMARK   64  A    between atoms: _157  and  _158
REMARK   65  A    between atoms: _157  and  _160
REMARK   66  A    between atoms: _160  and  _161
REMARK   67  A    between atoms: _161  and  _162
REMARK   68  A    between atoms: _165  and  _167
REMARK   69  A    between atoms: _167  and  _168
REMARK   70  A    between atoms: _167  and  _170
REMARK   71  A    between atoms: _170  and  _171
REMARK   72  A    between atoms: _171  and  _172
REMARK   73  A    between atoms: _172  and  _173
REMARK   74  A    between atoms: _173  and  _174
REMARK   75  A    between atoms: _178  and  _180
REMARK   76  A    between atoms: _180  and  _181
REMARK   77  A    between atoms: _180  and  _183
REMARK   78  A    between atoms: _186  and  _188
REMARK   79  A    between atoms: _188  and  _189
REMARK   80  A    between atoms: _188  and  _191
REMARK   81  A    between atoms: _191  and  _192
REMARK   82  A    between atoms: _194  and  _196
REMARK   83  A    between atoms: _196  and  _197
REMARK   84  A    between atoms: _196  and  _199
REMARK   85  A    between atoms: _199  and  _200
REMARK   86  A    between atoms: _202  and  _204
REMARK   87  A    between atoms: _204  and  _205
REMARK   88  A    between atoms: _204  and  _207
REMARK   89  A    between atoms: _207  and  _208
REMARK   90  A    between atoms: _214  and  _216
REMARK   91  A    between atoms: _216  and  _217
REMARK   92  A    between atoms: _216  and  _219
REMARK   93  A    between atoms: _219  and  _220
REMARK   94  A    between atoms: _223  and  _225
REMARK   95  A    between atoms: _225  and  _226
REMARK   96  A    between atoms: _225  and  _228
REMARK   97  A    between atoms: _228  and  _229
REMARK   98  A    between atoms: _235  and  _237
REMARK   99  A    between atoms: _237  and  _238
REMARK  100  A    between atoms: _237  and  _240
REMARK  101  A    between atoms: _242  and  _244
REMARK  102  A    between atoms: _244  and  _245
REMARK  103  A    between atoms: _248  and  _250
REMARK  104  A    between atoms: _250  and  _251
REMARK  105  A    between atoms: _253  and  _255
REMARK  106  A    between atoms: _255  and  _256
REMARK  107  A    between atoms: _255  and  _258
REMARK  108  A    between atoms: _258  and  _259
REMARK  109  A    between atoms: _259  and  _260
REMARK  110  A    between atoms: _263  and  _265
REMARK  111  A    between atoms: _265  and  _266
REMARK  112  A    between atoms: _265  and  _268
REMARK  113  A    between atoms: _268  and  _269
REMARK  114  A    between atoms: _272  and  _274
REMARK  115  A    between atoms: _274  and  _275
REMARK  116  A    between atoms: _278  and  _280
REMARK  117  A    between atoms: _280  and  _281
REMARK  118  A    between atoms: _280  and  _283
REMARK  119  A    between atoms: _283  and  _284
REMARK  120  A    between atoms: _284  and  _407
REMARK  121  A    between atoms: _285  and  _287
REMARK  122  A    between atoms: _287  and  _288
REMARK  123  A    between atoms: _287  and  _290
REMARK  124  A    between atoms: _290  and  _291
REMARK  125  A    between atoms: _291  and  _292
REMARK  126  A    between atoms: _297  and  _299
REMARK  127  A    between atoms: _299  and  _300
REMARK  128  A    between atoms: _302  and  _304
REMARK  129  A    between atoms: _304  and  _305
REMARK  130  A    between atoms: _304  and  _307
REMARK  131  A    between atoms: _307  and  _308
REMARK  132  A    between atoms: _311  and  _313
REMARK  133  A    between atoms: _313  and  _314
REMARK  134  A    between atoms: _313  and  _316
REMARK  135  A    between atoms: _316  and  _317
REMARK  136  A    between atoms: _319  and  _321
REMARK  137  A    between atoms: _321  and  _322
REMARK  138  A    between atoms: _324  and  _326
REMARK  139  A    between atoms: _326  and  _327
REMARK  140  A    between atoms: _329  and  _331
REMARK  141  A    between atoms: _331  and  _332
REMARK  142  A    between atoms: _331  and  _334
REMARK  143  A    between atoms: _334  and  _335
REMARK  144  A    between atoms: _340  and  _342
REMARK  145  A    between atoms: _342  and  _343
REMARK  146  A    between atoms: _342  and  _345
REMARK  147  A    between atoms: _345  and  _346
REMARK  148  A    between atoms: _349  and  _351
REMARK  149  A    between atoms: _351  and  _352
REMARK  150  A    between atoms: _351  and  _354
REMARK  151  A    between atoms: _357  and  _359
REMARK  152  A    between atoms: _359  and  _360
REMARK  153  A    between atoms: _359  and  _362
REMARK  154  A    between atoms: _362  and  _363
REMARK  155  A    between atoms: _365  and  _367
REMARK  156  A    between atoms: _367  and  _368
REMARK  157  A    between atoms: _367  and  _370
REMARK  158  A    between atoms: _370  and  _371
REMARK  159  A    between atoms: _381  and  _383
REMARK  160  A    between atoms: _383  and  _384
REMARK  161  A    between atoms: _386  and  _388
REMARK  162  A    between atoms: _388  and  _389
REMARK  163  A    between atoms: _388  and  _391
REMARK  164  A    between atoms: _391  and  _392
REMARK  165  A    between atoms: _392  and  _393
REMARK  166  A    between atoms: _396  and  _398
REMARK  167  A    between atoms: _398  and  _399
REMARK  168  A    between atoms: _401  and  _403
REMARK  169  A    between atoms: _403  and  _404
REMARK  170  A    between atoms: _403  and  _406
REMARK  171  A    between atoms: _406  and  _407
REMARK  172  A    between atoms: _408  and  _410
REMARK  173  A    between atoms: _410  and  _411
REMARK  174  A    between atoms: _414  and  _416
REMARK  175  A    between atoms: _416  and  _417
REMARK  176  A    between atoms: _416  and  _419
REMARK  177  A    between atoms: _419  and  _420
REMARK  178  A    between atoms: _420  and  _421
REMARK  179  A    between atoms: _421  and  _422
REMARK  180  A    between atoms: _431  and  _433
REMARK  181  A    between atoms: _433  and  _434
REMARK  182  A    between atoms: _433  and  _436
REMARK  183  A    between atoms: _436  and  _437
REMARK  184  A    between atoms: _437  and  _438
REMARK  185  A    between atoms: _438  and  _439
REMARK  186  A    between atoms: _439  and  _440
REMARK  187  A    between atoms: _444  and  _446
REMARK  188  A    between atoms: _446  and  _447
REMARK  189  A    between atoms: _446  and  _449
REMARK  190  A    between atoms: _449  and  _450
REMARK  191  A    between atoms: _455  and  _456
REMARK  192  A    between atoms: _458  and  _460
REMARK  193  A    between atoms: _460  and  _461
REMARK  194  A    between atoms: _463  and  _465
REMARK  195  A    between atoms: _465  and  _466
REMARK  196  A    between atoms: _465  and  _468
REMARK  197  A    between atoms: _468  and  _469
REMARK  198  A    between atoms: _472  and  _474
REMARK  199  A    between atoms: _474  and  _475
REMARK  200  A    between atoms: _474  and  _477
REMARK  201  A    between atoms: _477  and  _478
REMARK  202  A    between atoms: _483  and  _484
REMARK  203  A    between atoms: _486  and  _488
REMARK  204  A    between atoms: _488  and  _489
REMARK  205  A    between atoms: _488  and  _491
REMARK  206  A    between atoms: _491  and  _492
REMARK                            x       y       z     vdW  Elec       q    Type
REMARK                         _______ _______ _______ _____ _____    ______ ____
ROOT
ATOM      1  O   HOH     1      12.165  -1.514  17.384  0.00  0.00    +0.000 OA
ENDROOT
TORSDOF 0
REMARK  Name = ../refined-set-2016/1nfu/1nfu_pocket.pdb
REMARK  206 active torsions:
REMARK  status: ('A' for Active; 'I' for Inactive)
REMARK    1  A    between atoms: _1  and  _5
REMARK    2  A    between atoms: _5  and  _6
REMARK    3  A    between atoms: _5  and  _8
REMARK    4  A    between atoms: _8  and  _9
REMARK    5  A    between atoms: _12  and  _14
REMARK    6  A    between atoms: _14  and  _15
REMARK    7  A    between atoms: _14  and  _17
REMARK    8  A    between atoms: _20  and  _22
REMARK    9  A    between atoms: _22  and  _23
REMARK   10  A    between atoms: _22  and  _25
REMARK   11  A    between atoms: _25  and  _26
REMARK   12  A    between atoms: _32  and  _34
REMARK   13  A    between atoms: _34  and  _35
REMARK   14  A    between atoms: _34  and  _37
REMARK   15  A    between atoms: _37  and  _38
REMARK   16  A    between atoms: _43  and  _45
REMARK   17  A    between atoms: _45  and  _46
REMARK   18  A    between atoms: _45  and  _48
REMARK   19  A    between atoms: _48  and  _49
REMARK   20  A    between atoms: _49  and  _50
REMARK   21  A    between atoms: _55  and  _57
REMARK   22  A    between atoms: _57  and  _58
REMARK   23  A    between atoms: _57  and  _60
REMARK   24  A    between atoms: _60  and  _61
REMARK   25  A    between atoms: _64  and  _66
REMARK   26  A    between atoms: _66  and  _67
REMARK   27  A    between atoms: _66  and  _69
REMARK   28  A    between atoms: _69  and  _70
REMARK   29  A    between atoms: _70  and  _71
REMARK   30  A    between atoms: _71  and  _72
REMARK   31  A    between atoms: _72  and  _73
REMARK   32  A    between atoms: _77  and  _79
REMARK   33  A    between atoms: _79  and  _80
REMARK   34  A    between atoms: _79  and  _82
REMARK   35  A    between atoms: _82  and  _83
REMARK   36  A    between atoms: _83  and  _84
REMARK   37  A    between atoms: _87  and  _89
REMARK   38  A    between atoms: _89  and  _90
REMARK   39  A    between atoms: _89  and  _92
REMARK   40  A    between atoms: _92  and  _93
REMARK   41  A    between atoms: _96  and  _98
REMARK   42  A    between atoms: _98  and  _99
REMARK   43  A    between atoms: _98  and  _101
REMARK   44  A    between atoms: _101  and  _102
REMARK   45  A    between atoms: _107  and  _108
REMARK   46  A    between atoms: _110  and  _112
REMARK   47  A    between atoms: _112  and  _113
REMARK   48  A    between atoms: _112  and  _115
REMARK   49  A    between atoms: _115  and  _116
REMARK   50  A    between atoms: _119  and  _121
REMARK   51  A    between atoms: _121  and  _122
REMARK   52  A    between atoms: _121  and  _124
REMARK   53  A    between atoms: _127  and  _129
REMARK   54  A    between atoms: _129  and  _130
REMARK   55  A    between atoms: _129  and  _132
REMARK   56  A    between atoms: _132  and  _133
REMARK   57  A    between atoms: _133  and  _134
REMARK   58  A    between atoms: _134  and  _135
REMARK   59  A    between atoms: _144  and  _146
REMARK   60  A    between atoms: _146  and  _147
REMARK   61  A    between atoms: _146  and  _149
REMARK   62  A    between atoms: _149  and  _150
REMARK   63  A    between atoms: _155  and  _157
REMARK   64  A    between atoms: _157  and  _158
REMARK   65  A    between atoms: _157  and  _160
REMARK   66  A    between atoms: _160  and  _161
REMARK   67  A    between atoms: _161  and  _162
REMARK   68  A    between atoms: _165  and  _167
REMARK   69  A    between atoms: _167  and  _168
REMARK   70  A    between atoms: _167  and  _170
REMARK   71  A    between atoms: _170  and  _171
REMARK   72  A    between atoms: _171  and  _172
REMARK   73  A    between atoms: _172  and  _173
REMARK   74  A    between atoms: _173  and  _174
REMARK   75  A    between atoms: _178  and  _180
REMARK   76  A    between atoms: _180  and  _181
REMARK   77  A    between atoms: _180  and  _183
REMARK   78  A    between atoms: _186  and  _188
REMARK   79  A    between atoms: _188  and  _189
REMARK   80  A    between atoms: _188  and  _191
REMARK   81  A    between atoms: _191  and  _192
REMARK   82  A    between atoms: _194  and  _196
REMARK   83  A    between atoms: _196  and  _197
REMARK   84  A    between atoms: _196  and  _199
REMARK   85  A    between atoms: _199  and  _200
REMARK   86  A    between atoms: _202  and  _204
REMARK   87  A    between atoms: _204  and  _205
REMARK   88  A    between atoms: _204  and  _207
REMARK   89  A    between atoms: _207  and  _208
REMARK   90  A    between atoms: _214  and  _216
REMARK   91  A    between atoms: _216  and  _217
REMARK   92  A    between atoms: _216  and  _219
REMARK   93  A    between atoms: _219  and  _220
REMARK   94  A    between atoms: _223  and  _225
REMARK   95  A    between atoms: _225  and  _226
REMARK   96  A    between atoms: _225  and  _228
REMARK   97  A    between atoms: _228  and  _229
REMARK   98  A    between atoms: _235  and  _237
REMARK   99  A    between atoms: _237  and  _238
REMARK  100  A    between atoms: _237  and  _240
REMARK  101  A    between atoms: _242  and  _244
REMARK  102  A    between atoms: _244  and  _245
REMARK  103  A    between atoms: _248  and  _250
REMARK  104  A    between atoms: _250  and  _251
REMARK  105  A    between atoms: _253  and  _255
REMARK  106  A    between atoms: _255  and  _256
REMARK  107  A    between atoms: _255  and  _258
REMARK  108  A    between atoms: _258  and  _259
REMARK  109  A    between atoms: _259  and  _260
REMARK  110  A    between atoms: _263  and  _265
REMARK  111  A    between atoms: _265  and  _266
REMARK  112  A    between atoms: _265  and  _268
REMARK  113  A    between atoms: _268  and  _269
REMARK  114  A    between atoms: _272  and  _274
REMARK  115  A    between atoms: _274  and  _275
REMARK  116  A    between atoms: _278  and  _280
REMARK  117  A    between atoms: _280  and  _281
REMARK  118  A    between atoms: _280  and  _283
REMARK  119  A    between atoms: _283  and  _284
REMARK  120  A    between atoms: _284  and  _407
REMARK  121  A    between atoms: _285  and  _287
REMARK  122  A    between atoms: _287  and  _288
REMARK  123  A    between atoms: _287  and  _290
REMARK  124  A    between atoms: _290  and  _291
REMARK  125  A    between atoms: _291  and  _292
REMARK  126  A    between atoms: _297  and  _299
REMARK  127  A    between atoms: _299  and  _300
REMARK  128  A    between atoms: _302  and  _304
REMARK  129  A    between atoms: _304  and  _305
REMARK  130  A    between atoms: _304  and  _307
REMARK  131  A    between atoms: _307  and  _308
REMARK  132  A    between atoms: _311  and  _313
REMARK  133  A    between atoms: _313  and  _314
REMARK  134  A    between atoms: _313  and  _316
REMARK  135  A    between atoms: _316  and  _317
REMARK  136  A    between atoms: _319  and  _321
REMARK  137  A    between atoms: _321  and  _322
REMARK  138  A    between atoms: _324  and  _326
REMARK  139  A    between atoms: _326  and  _327
REMARK  140  A    between atoms: _329  and  _331
REMARK  141  A    between atoms: _331  and  _332
REMARK  142  A    between atoms: _331  and  _334
REMARK  143  A    between atoms: _334  and  _335
REMARK  144  A    between atoms: _340  and  _342
REMARK  145  A    between atoms: _342  and  _343
REMARK  146  A    between atoms: _342  and  _345
REMARK  147  A    between atoms: _345  and  _346
REMARK  148  A    between atoms: _349  and  _351
REMARK  149  A    between atoms: _351  and  _352
REMARK  150  A    between atoms: _351  and  _354
REMARK  151  A    between atoms: _357  and  _359
REMARK  152  A    between atoms: _359  and  _360
REMARK  153  A    between atoms: _359  and  _362
REMARK  154  A    between atoms: _362  and  _363
REMARK  155  A    between atoms: _365  and  _367
REMARK  156  A    between atoms: _367  and  _368
REMARK  157  A    between atoms: _367  and  _370
REMARK  158  A    between atoms: _370  and  _371
REMARK  159  A    between atoms: _381  and  _383
REMARK  160  A    between atoms: _383  and  _384
REMARK  161  A    between atoms: _386  and  _388
REMARK  162  A    between atoms: _388  and  _389
REMARK  163  A    between atoms: _388  and  _391
REMARK  164  A    between atoms: _391  and  _392
REMARK  165  A    between atoms: _392  and  _393
REMARK  166  A    between atoms: _396  and  _398
REMARK  167  A    between atoms: _398  and  _399
REMARK  168  A    between atoms: _401  and  _403
REMARK  169  A    between atoms: _403  and  _404
REMARK  170  A    between atoms: _403  and  _406
REMARK  171  A    between atoms: _406  and  _407
REMARK  172  A    between atoms: _408  and  _410
REMARK  173  A    between atoms: _410  and  _411
REMARK  174  A    between atoms: _414  and  _416
REMARK  175  A    between atoms: _416  and  _417
REMARK  176  A    between atoms: _416  and  _419
REMARK  177  A    between atoms: _419  and  _420
REMARK  178  A    between atoms: _420  and  _421
REMARK  179  A    between atoms: _421  and  _422
REMARK  180  A    between atoms: _431  and  _433
REMARK  181  A    between atoms: _433  and  _434
REMARK  182  A    between atoms: _433  and  _436
REMARK  183  A    between atoms: _436  and  _437
REMARK  184  A    between atoms: _437  and  _438
REMARK  185  A    between atoms: _438  and  _439
REMARK  186  A    between atoms: _439  and  _440
REMARK  187  A    between atoms: _444  and  _446
REMARK  188  A    between atoms: _446  and  _447
REMARK  189  A    between atoms: _446  and  _449
REMARK  190  A    between atoms: _449  and  _450
REMARK  191  A    between atoms: _455  and  _456
REMARK  192  A    between atoms: _458  and  _460
REMARK  193  A    between atoms: _460  and  _461
REMARK  194  A    between atoms: _463  and  _465
REMARK  195  A    between atoms: _465  and  _466
REMARK  196  A    between atoms: _465  and  _468
REMARK  197  A    between atoms: _468  and  _469
REMARK  198  A    between atoms: _472  and  _474
REMARK  199  A    between atoms: _474  and  _475
REMARK  200  A    between atoms: _474  and  _477
REMARK  201  A    between atoms: _477  and  _478
REMARK  202  A    between atoms: _483  and  _484
REMARK  203  A    between atoms: _486  and  _488
REMARK  204  A    between atoms: _488  and  _489
REMARK  205  A    between atoms: _488  and  _491
REMARK  206  A    between atoms: _491  and  _492
REMARK                            x       y       z     vdW  Elec       q    Type
REMARK                         _______ _______ _______ _____ _____    ______ ____
ROOT
ATOM      1  O   HOH     1       8.903  11.885  19.868  0.00  0.00    +0.000 OA
ENDROOT
TORSDOF 0
REMARK  Name = ../refined-set-2016/1nfu/1nfu_pocket.pdb
REMARK  206 active torsions:
REMARK  status: ('A' for Active; 'I' for Inactive)
REMARK    1  A    between atoms: _1  and  _5
REMARK    2  A    between atoms: _5  and  _6
REMARK    3  A    between atoms: _5  and  _8
REMARK    4  A    between atoms: _8  and  _9
REMARK    5  A    between atoms: _12  and  _14
REMARK    6  A    between atoms: _14  and  _15
REMARK    7  A    between atoms: _14  and  _17
REMARK    8  A    between atoms: _20  and  _22
REMARK    9  A    between atoms: _22  and  _23
REMARK   10  A    between atoms: _22  and  _25
REMARK   11  A    between atoms: _25  and  _26
REMARK   12  A    between atoms: _32  and  _34
REMARK   13  A    between atoms: _34  and  _35
REMARK   14  A    between atoms: _34  and  _37
REMARK   15  A    between atoms: _37  and  _38
REMARK   16  A    between atoms: _43  and  _45
REMARK   17  A    between atoms: _45  and  _46
REMARK   18  A    between atoms: _45  and  _48
REMARK   19  A    between atoms: _48  and  _49
REMARK   20  A    between atoms: _49  and  _50
REMARK   21  A    between atoms: _55  and  _57
REMARK   22  A    between atoms: _57  and  _58
REMARK   23  A    between atoms: _57  and  _60
REMARK   24  A    between atoms: _60  and  _61
REMARK   25  A    between atoms: _64  and  _66
REMARK   26  A    between atoms: _66  and  _67
REMARK   27  A    between atoms: _66  and  _69
REMARK   28  A    between atoms: _69  and  _70
REMARK   29  A    between atoms: _70  and  _71
REMARK   30  A    between atoms: _71  and  _72
REMARK   31  A    between atoms: _72  and  _73
REMARK   32  A    between atoms: _77  and  _79
REMARK   33  A    between atoms: _79  and  _80
REMARK   34  A    between atoms: _79  and  _82
REMARK   35  A    between atoms: _82  and  _83
REMARK   36  A    between atoms: _83  and  _84
REMARK   37  A    between atoms: _87  and  _89
REMARK   38  A    between atoms: _89  and  _90
REMARK   39  A    between atoms: _89  and  _92
REMARK   40  A    between atoms: _92  and  _93
REMARK   41  A    between atoms: _96  and  _98
REMARK   42  A    between atoms: _98  and  _99
REMARK   43  A    between atoms: _98  and  _101
REMARK   44  A    between atoms: _101  and  _102
REMARK   45  A    between atoms: _107  and  _108
REMARK   46  A    between atoms: _110  and  _112
REMARK   47  A    between atoms: _112  and  _113
REMARK   48  A    between atoms: _112  and  _115
REMARK   49  A    between atoms: _115  and  _116
REMARK   50  A    between atoms: _119  and  _121
REMARK   51  A    between atoms: _121  and  _122
REMARK   52  A    between atoms: _121  and  _124
REMARK   53  A    between atoms: _127  and  _129
REMARK   54  A    between atoms: _129  and  _130
REMARK   55  A    between atoms: _129  and  _132
REMARK   56  A    between atoms: _132  and  _133
REMARK   57  A    between atoms: _133  and  _134
REMARK   58  A    between atoms: _134  and  _135
REMARK   59  A    between atoms: _144  and  _146
REMARK   60  A    between atoms: _146  and  _147
REMARK   61  A    between atoms: _146  and  _149
REMARK   62  A    between atoms: _149  and  _150
REMARK   63  A    between atoms: _155  and  _157
REMARK   64  A    between atoms: _157  and  _158
REMARK   65  A    between atoms: _157  and  _160
REMARK   66  A    between atoms: _160  and  _161
REMARK   67  A    between atoms: _161  and  _162
REMARK   68  A    between atoms: _165  and  _167
REMARK   69  A    between atoms: _167  and  _168
REMARK   70  A    between atoms: _167  and  _170
REMARK   71  A    between atoms: _170  and  _171
REMARK   72  A    between atoms: _171  and  _172
REMARK   73  A    between atoms: _172  and  _173
REMARK   74  A    between atoms: _173  and  _174
REMARK   75  A    between atoms: _178  and  _180
REMARK   76  A    between atoms: _180  and  _181
REMARK   77  A    between atoms: _180  and  _183
REMARK   78  A    between atoms: _186  and  _188
REMARK   79  A    between atoms: _188  and  _189
REMARK   80  A    between atoms: _188  and  _191
REMARK   81  A    between atoms: _191  and  _192
REMARK   82  A    between atoms: _194  and  _196
REMARK   83  A    between atoms: _196  and  _197
REMARK   84  A    between atoms: _196  and  _199
REMARK   85  A    between atoms: _199  and  _200
REMARK   86  A    between atoms: _202  and  _204
REMARK   87  A    between atoms: _204  and  _205
REMARK   88  A    between atoms: _204  and  _207
REMARK   89  A    between atoms: _207  and  _208
REMARK   90  A    between atoms: _214  and  _216
REMARK   91  A    between atoms: _216  and  _217
REMARK   92  A    between atoms: _216  and  _219
REMARK   93  A    between atoms: _219  and  _220
REMARK   94  A    between atoms: _223  and  _225
REMARK   95  A    between atoms: _225  and  _226
REMARK   96  A    between atoms: _225  and  _228
REMARK   97  A    between atoms: _228  and  _229
REMARK   98  A    between atoms: _235  and  _237
REMARK   99  A    between atoms: _237  and  _238
REMARK  100  A    between atoms: _237  and  _240
REMARK  101  A    between atoms: _242  and  _244
REMARK  102  A    between atoms: _244  and  _245
REMARK  103  A    between atoms: _248  and  _250
REMARK  104  A    between atoms: _250  and  _251
REMARK  105  A    between atoms: _253  and  _255
REMARK  106  A    between atoms: _255  and  _256
REMARK  107  A    between atoms: _255  and  _258
REMARK  108  A    between atoms: _258  and  _259
REMARK  109  A    between atoms: _259  and  _260
REMARK  110  A    between atoms: _263  and  _265
REMARK  111  A    between atoms: _265  and  _266
REMARK  112  A    between atoms: _265  and  _268
REMARK  113  A    between atoms: _268  and  _269
REMARK  114  A    between atoms: _272  and  _274
REMARK  115  A    between atoms: _274  and  _275
REMARK  116  A    between atoms: _278  and  _280
REMARK  117  A    between atoms: _280  and  _281
REMARK  118  A    between atoms: _280  and  _283
REMARK  119  A    between atoms: _283  and  _284
REMARK  120  A    between atoms: _284  and  _407
REMARK  121  A    between atoms: _285  and  _287
REMARK  122  A    between atoms: _287  and  _288
REMARK  123  A    between atoms: _287  and  _290
REMARK  124  A    between atoms: _290  and  _291
REMARK  125  A    between atoms: _291  and  _292
REMARK  126  A    between atoms: _297  and  _299
REMARK  127  A    between atoms: _299  and  _300
REMARK  128  A    between atoms: _302  and  _304
REMARK  129  A    between atoms: _304  and  _305
REMARK  130  A    between atoms: _304  and  _307
REMARK  131  A    between atoms: _307  and  _308
REMARK  132  A    between atoms: _311  and  _313
REMARK  133  A    between atoms: _313  and  _314
REMARK  134  A    between atoms: _313  and  _316
REMARK  135  A    between atoms: _316  and  _317
REMARK  136  A    between atoms: _319  and  _321
REMARK  137  A    between atoms: _321  and  _322
REMARK  138  A    between atoms: _324  and  _326
REMARK  139  A    between atoms: _326  and  _327
REMARK  140  A    between atoms: _329  and  _331
REMARK  141  A    between atoms: _331  and  _332
REMARK  142  A    between atoms: _331  and  _334
REMARK  143  A    between atoms: _334  and  _335
REMARK  144  A    between atoms: _340  and  _342
REMARK  145  A    between atoms: _342  and  _343
REMARK  146  A    between atoms: _342  and  _345
REMARK  147  A    between atoms: _345  and  _346
REMARK  148  A    between atoms: _349  and  _351
REMARK  149  A    between atoms: _351  and  _352
REMARK  150  A    between atoms: _351  and  _354
REMARK  151  A    between atoms: _357  and  _359
REMARK  152  A    between atoms: _359  and  _360
REMARK  153  A    between atoms: _359  and  _362
REMARK  154  A    between atoms: _362  and  _363
REMARK  155  A    between atoms: _365  and  _367
REMARK  156  A    between atoms: _367  and  _368
REMARK  157  A    between atoms: _367  and  _370
REMARK  158  A    between atoms: _370  and  _371
REMARK  159  A    between atoms: _381  and  _383
REMARK  160  A    between atoms: _383  and  _384
REMARK  161  A    between atoms: _386  and  _388
REMARK  162  A    between atoms: _388  and  _389
REMARK  163  A    between atoms: _388  and  _391
REMARK  164  A    between atoms: _391  and  _392
REMARK  165  A    between atoms: _392  and  _393
REMARK  166  A    between atoms: _396  and  _398
REMARK  167  A    between atoms: _398  and  _399
REMARK  168  A    between atoms: _401  and  _403
REMARK  169  A    between atoms: _403  and  _404
REMARK  170  A    between atoms: _403  and  _406
REMARK  171  A    between atoms: _406  and  _407
REMARK  172  A    between atoms: _408  and  _410
REMARK  173  A    between atoms: _410  and  _411
REMARK  174  A    between atoms: _414  and  _416
REMARK  175  A    between atoms: _416  and  _417
REMARK  176  A    between atoms: _416  and  _419
REMARK  177  A    between atoms: _419  and  _420
REMARK  178  A    between atoms: _420  and  _421
REMARK  179  A    between atoms: _421  and  _422
REMARK  180  A    between atoms: _431  and  _433
REMARK  181  A    between atoms: _433  and  _434
REMARK  182  A    between atoms: _433  and  _436
REMARK  183  A    between atoms: _436  and  _437
REMARK  184  A    between atoms: _437  and  _438
REMARK  185  A    between atoms: _438  and  _439
REMARK  186  A    between atoms: _439  and  _440
REMARK  187  A    between atoms: _444  and  _446
REMARK  188  A    between atoms: _446  and  _447
REMARK  189  A    between atoms: _446  and  _449
REMARK  190  A    between atoms: _449  and  _450
REMARK  191  A    between atoms: _455  and  _456
REMARK  192  A    between atoms: _458  and  _460
REMARK  193  A    between atoms: _460  and  _461
REMARK  194  A    between atoms: _463  and  _465
REMARK  195  A    between atoms: _465  and  _466
REMARK  196  A    between atoms: _465  and  _468
REMARK  197  A    between atoms: _468  and  _469
REMARK  198  A    between atoms: _472  and  _474
REMARK  199  A    between atoms: _474  and  _475
REMARK  200  A    between atoms: _474  and  _477
REMARK  201  A    between atoms: _477  and  _478
REMARK  202  A    between atoms: _483  and  _484
REMARK  203  A    between atoms: _486  and  _488
REMARK  204  A    between atoms: _488  and  _489
REMARK  205  A    between atoms: _488  and  _491
REMARK  206  A    between atoms: _491  and  _492
REMARK                            x       y       z     vdW  Elec       q    Type
REMARK                         _______ _______ _______ _____ _____    ______ ____
ROOT
ATOM      1  O   HOH     1       6.591  -0.024  14.011  0.00  0.00    +0.000 OA
ENDROOT
TORSDOF 0
REMARK  Name = ../refined-set-2016/1nfu/1nfu_pocket.pdb
REMARK  206 active torsions:
REMARK  status: ('A' for Active; 'I' for Inactive)
REMARK    1  A    between atoms: _1  and  _5
REMARK    2  A    between atoms: _5  and  _6
REMARK    3  A    between atoms: _5  and  _8
REMARK    4  A    between atoms: _8  and  _9
REMARK    5  A    between atoms: _12  and  _14
REMARK    6  A    between atoms: _14  and  _15
REMARK    7  A    between atoms: _14  and  _17
REMARK    8  A    between atoms: _20  and  _22
REMARK    9  A    between atoms: _22  and  _23
REMARK   10  A    between atoms: _22  and  _25
REMARK   11  A    between atoms: _25  and  _26
REMARK   12  A    between atoms: _32  and  _34
REMARK   13  A    between atoms: _34  and  _35
REMARK   14  A    between atoms: _34  and  _37
REMARK   15  A    between atoms: _37  and  _38
REMARK   16  A    between atoms: _43  and  _45
REMARK   17  A    between atoms: _45  and  _46
REMARK   18  A    between atoms: _45  and  _48
REMARK   19  A    between atoms: _48  and  _49
REMARK   20  A    between atoms: _49  and  _50
REMARK   21  A    between atoms: _55  and  _57
REMARK   22  A    between atoms: _57  and  _58
REMARK   23  A    between atoms: _57  and  _60
REMARK   24  A    between atoms: _60  and  _61
REMARK   25  A    between atoms: _64  and  _66
REMARK   26  A    between atoms: _66  and  _67
REMARK   27  A    between atoms: _66  and  _69
REMARK   28  A    between atoms: _69  and  _70
REMARK   29  A    between atoms: _70  and  _71
REMARK   30  A    between atoms: _71  and  _72
REMARK   31  A    between atoms: _72  and  _73
REMARK   32  A    between atoms: _77  and  _79
REMARK   33  A    between atoms: _79  and  _80
REMARK   34  A    between atoms: _79  and  _82
REMARK   35  A    between atoms: _82  and  _83
REMARK   36  A    between atoms: _83  and  _84
REMARK   37  A    between atoms: _87  and  _89
REMARK   38  A    between atoms: _89  and  _90
REMARK   39  A    between atoms: _89  and  _92
REMARK   40  A    between atoms: _92  and  _93
REMARK   41  A    between atoms: _96  and  _98
REMARK   42  A    between atoms: _98  and  _99
REMARK   43  A    between atoms: _98  and  _101
REMARK   44  A    between atoms: _101  and  _102
REMARK   45  A    between atoms: _107  and  _108
REMARK   46  A    between atoms: _110  and  _112
REMARK   47  A    between atoms: _112  and  _113
REMARK   48  A    between atoms: _112  and  _115
REMARK   49  A    between atoms: _115  and  _116
REMARK   50  A    between atoms: _119  and  _121
REMARK   51  A    between atoms: _121  and  _122
REMARK   52  A    between atoms: _121  and  _124
REMARK   53  A    between atoms: _127  and  _129
REMARK   54  A    between atoms: _129  and  _130
REMARK   55  A    between atoms: _129  and  _132
REMARK   56  A    between atoms: _132  and  _133
REMARK   57  A    between atoms: _133  and  _134
REMARK   58  A    between atoms: _134  and  _135
REMARK   59  A    between atoms: _144  and  _146
REMARK   60  A    between atoms: _146  and  _147
REMARK   61  A    between atoms: _146  and  _149
REMARK   62  A    between atoms: _149  and  _150
REMARK   63  A    between atoms: _155  and  _157
REMARK   64  A    between atoms: _157  and  _158
REMARK   65  A    between atoms: _157  and  _160
REMARK   66  A    between atoms: _160  and  _161
REMARK   67  A    between atoms: _161  and  _162
REMARK   68  A    between atoms: _165  and  _167
REMARK   69  A    between atoms: _167  and  _168
REMARK   70  A    between atoms: _167  and  _170
REMARK   71  A    between atoms: _170  and  _171
REMARK   72  A    between atoms: _171  and  _172
REMARK   73  A    between atoms: _172  and  _173
REMARK   74  A    between atoms: _173  and  _174
REMARK   75  A    between atoms: _178  and  _180
REMARK   76  A    between atoms: _180  and  _181
REMARK   77  A    between atoms: _180  and  _183
REMARK   78  A    between atoms: _186  and  _188
REMARK   79  A    between atoms: _188  and  _189
REMARK   80  A    between atoms: _188  and  _191
REMARK   81  A    between atoms: _191  and  _192
REMARK   82  A    between atoms: _194  and  _196
REMARK   83  A    between atoms: _196  and  _197
REMARK   84  A    between atoms: _196  and  _199
REMARK   85  A    between atoms: _199  and  _200
REMARK   86  A    between atoms: _202  and  _204
REMARK   87  A    between atoms: _204  and  _205
REMARK   88  A    between atoms: _204  and  _207
REMARK   89  A    between atoms: _207  and  _208
REMARK   90  A    between atoms: _214  and  _216
REMARK   91  A    between atoms: _216  and  _217
REMARK   92  A    between atoms: _216  and  _219
REMARK   93  A    between atoms: _219  and  _220
REMARK   94  A    between atoms: _223  and  _225
REMARK   95  A    between atoms: _225  and  _226
REMARK   96  A    between atoms: _225  and  _228
REMARK   97  A    between atoms: _228  and  _229
REMARK   98  A    between atoms: _235  and  _237
REMARK   99  A    between atoms: _237  and  _238
REMARK  100  A    between atoms: _237  and  _240
REMARK  101  A    between atoms: _242  and  _244
REMARK  102  A    between atoms: _244  and  _245
REMARK  103  A    between atoms: _248  and  _250
REMARK  104  A    between atoms: _250  and  _251
REMARK  105  A    between atoms: _253  and  _255
REMARK  106  A    between atoms: _255  and  _256
REMARK  107  A    between atoms: _255  and  _258
REMARK  108  A    between atoms: _258  and  _259
REMARK  109  A    between atoms: _259  and  _260
REMARK  110  A    between atoms: _263  and  _265
REMARK  111  A    between atoms: _265  and  _266
REMARK  112  A    between atoms: _265  and  _268
REMARK  113  A    between atoms: _268  and  _269
REMARK  114  A    between atoms: _272  and  _274
REMARK  115  A    between atoms: _274  and  _275
REMARK  116  A    between atoms: _278  and  _280
REMARK  117  A    between atoms: _280  and  _281
REMARK  118  A    between atoms: _280  and  _283
REMARK  119  A    between atoms: _283  and  _284
REMARK  120  A    between atoms: _284  and  _407
REMARK  121  A    between atoms: _285  and  _287
REMARK  122  A    between atoms: _287  and  _288
REMARK  123  A    between atoms: _287  and  _290
REMARK  124  A    between atoms: _290  and  _291
REMARK  125  A    between atoms: _291  and  _292
REMARK  126  A    between atoms: _297  and  _299
REMARK  127  A    between atoms: _299  and  _300
REMARK  128  A    between atoms: _302  and  _304
REMARK  129  A    between atoms: _304  and  _305
REMARK  130  A    between atoms: _304  and  _307
REMARK  131  A    between atoms: _307  and  _308
REMARK  132  A    between atoms: _311  and  _313
REMARK  133  A    between atoms: _313  and  _314
REMARK  134  A    between atoms: _313  and  _316
REMARK  135  A    between atoms: _316  and  _317
REMARK  136  A    between atoms: _319  and  _321
REMARK  137  A    between atoms: _321  and  _322
REMARK  138  A    between atoms: _324  and  _326
REMARK  139  A    between atoms: _326  and  _327
REMARK  140  A    between atoms: _329  and  _331
REMARK  141  A    between atoms: _331  and  _332
REMARK  142  A    between atoms: _331  and  _334
REMARK  143  A    between atoms: _334  and  _335
REMARK  144  A    between atoms: _340  and  _342
REMARK  145  A    between atoms: _342  and  _343
REMARK  146  A    between atoms: _342  and  _345
REMARK  147  A    between atoms: _345  and  _346
REMARK  148  A    between atoms: _349  and  _351
REMARK  149  A    between atoms: _351  and  _352
REMARK  150  A    between atoms: _351  and  _354
REMARK  151  A    between atoms: _357  and  _359
REMARK  152  A    between atoms: _359  and  _360
REMARK  153  A    between atoms: _359  and  _362
REMARK  154  A    between atoms: _362  and  _363
REMARK  155  A    between atoms: _365  and  _367
REMARK  156  A    between atoms: _367  and  _368
REMARK  157  A    between atoms: _367  and  _370
REMARK  158  A    between atoms: _370  and  _371
REMARK  159  A    between atoms: _381  and  _383
REMARK  160  A    between atoms: _383  and  _384
REMARK  161  A    between atoms: _386  and  _388
REMARK  162  A    between atoms: _388  and  _389
REMARK  163  A    between atoms: _388  and  _391
REMARK  164  A    between atoms: _391  and  _392
REMARK  165  A    between atoms: _392  and  _393
REMARK  166  A    between atoms: _396  and  _398
REMARK  167  A    between atoms: _398  and  _399
REMARK  168  A    between atoms: _401  and  _403
REMARK  169  A    between atoms: _403  and  _404
REMARK  170  A    between atoms: _403  and  _406
REMARK  171  A    between atoms: _406  and  _407
REMARK  172  A    between atoms: _408  and  _410
REMARK  173  A    between atoms: _410  and  _411
REMARK  174  A    between atoms: _414  and  _416
REMARK  175  A    between atoms: _416  and  _417
REMARK  176  A    between atoms: _416  and  _419
REMARK  177  A    between atoms: _419  and  _420
REMARK  178  A    between atoms: _420  and  _421
REMARK  179  A    between atoms: _421  and  _422
REMARK  180  A    between atoms: _431  and  _433
REMARK  181  A    between atoms: _433  and  _434
REMARK  182  A    between atoms: _433  and  _436
REMARK  183  A    between atoms: _436  and  _437
REMARK  184  A    between atoms: _437  and  _438
REMARK  185  A    between atoms: _438  and  _439
REMARK  186  A    between atoms: _439  and  _440
REMARK  187  A    between atoms: _444  and  _446
REMARK  188  A    between atoms: _446  and  _447
REMARK  189  A    between atoms: _446  and  _449
REMARK  190  A    between atoms: _449  and  _450
REMARK  191  A    between atoms: _455  and  _456
REMARK  192  A    between atoms: _458  and  _460
REMARK  193  A    between atoms: _460  and  _461
REMARK  194  A    between atoms: _463  and  _465
REMARK  195  A    between atoms: _465  and  _466
REMARK  196  A    between atoms: _465  and  _468
REMARK  197  A    between atoms: _468  and  _469
REMARK  198  A    between atoms: _472  and  _474
REMARK  199  A    between atoms: _474  and  _475
REMARK  200  A    between atoms: _474  and  _477
REMARK  201  A    between atoms: _477  and  _478
REMARK  202  A    between atoms: _483  and  _484
REMARK  203  A    between atoms: _486  and  _488
REMARK  204  A    between atoms: _488  and  _489
REMARK  205  A    between atoms: _488  and  _491
REMARK  206  A    between atoms: _491  and  _492
REMARK                            x       y       z     vdW  Elec       q    Type
REMARK                         _______ _______ _______ _____ _____    ______ ____
ROOT
ATOM      1  O   HOH     1       9.700  -5.719  15.955  0.00  0.00    +0.000 OA
ENDROOT
TORSDOF 0
