REMARK  Name = ../refined-set-2016/3syr/3syr_pocket.pdb
REMARK  256 active torsions:
REMARK  status: ('A' for Active; 'I' for Inactive)
REMARK    1  A    between atoms: _1  and  _3
REMARK    2  A    between atoms: _3  and  _4
REMARK    3  A    between atoms: _3  and  _6
REMARK    4  A    between atoms: _6  and  _7
REMARK    5  A    between atoms: _12  and  _13
REMARK    6  A    between atoms: _15  and  _17
REMARK    7  A    between atoms: _17  and  _18
REMARK    8  A    between atoms: _17  and  _20
REMARK    9  A    between atoms: _20  and  _21
REMARK   10  A    between atoms: _21  and  _22
REMARK   11  A    between atoms: _25  and  _27
REMARK   12  A    between atoms: _27  and  _28
REMARK   13  A    between atoms: _27  and  _30
REMARK   14  A    between atoms: _30  and  _31
REMARK   15  A    between atoms: _36  and  _37
REMARK   16  A    between atoms: _39  and  _41
REMARK   17  A    between atoms: _41  and  _42
REMARK   18  A    between atoms: _41  and  _44
REMARK   19  A    between atoms: _44  and  _45
REMARK   20  A    between atoms: _50  and  _52
REMARK   21  A    between atoms: _52  and  _53
REMARK   22  A    between atoms: _55  and  _57
REMARK   23  A    between atoms: _57  and  _58
REMARK   24  A    between atoms: _60  and  _62
REMARK   25  A    between atoms: _62  and  _63
REMARK   26  A    between atoms: _62  and  _65
REMARK   27  A    between atoms: _65  and  _66
REMARK   28  A    between atoms: _69  and  _71
REMARK   29  A    between atoms: _71  and  _72
REMARK   30  A    between atoms: _74  and  _76
REMARK   31  A    between atoms: _76  and  _77
REMARK   32  A    between atoms: _76  and  _79
REMARK   33  A    between atoms: _79  and  _80
REMARK   34  A    between atoms: _80  and  _81
REMARK   35  A    between atoms: _81  and  _82
REMARK   36  A    between atoms: _91  and  _93
REMARK   37  A    between atoms: _93  and  _94
REMARK   38  A    between atoms: _93  and  _96
REMARK   39  A    between atoms: _96  and  _97
REMARK   40  A    between atoms: _100  and  _102
REMARK   41  A    between atoms: _102  and  _103
REMARK   42  A    between atoms: _106  and  _108
REMARK   43  A    between atoms: _108  and  _109
REMARK   44  A    between atoms: _108  and  _111
REMARK   45  A    between atoms: _111  and  _112
REMARK   46  A    between atoms: _118  and  _120
REMARK   47  A    between atoms: _120  and  _121
REMARK   48  A    between atoms: _120  and  _123
REMARK   49  A    between atoms: _123  and  _124
REMARK   50  A    between atoms: _129  and  _131
REMARK   51  A    between atoms: _131  and  _132
REMARK   52  A    between atoms: _131  and  _134
REMARK   53  A    between atoms: _134  and  _135
REMARK   54  A    between atoms: _138  and  _140
REMARK   55  A    between atoms: _140  and  _141
REMARK   56  A    between atoms: _140  and  _143
REMARK   57  A    between atoms: _143  and  _144
REMARK   58  A    between atoms: _149  and  _151
REMARK   59  A    between atoms: _151  and  _152
REMARK   60  A    between atoms: _151  and  _154
REMARK   61  A    between atoms: _154  and  _155
REMARK   62  A    between atoms: _161  and  _163
REMARK   63  A    between atoms: _163  and  _164
REMARK   64  A    between atoms: _163  and  _166
REMARK   65  A    between atoms: _166  and  _167
REMARK   66  A    between atoms: _173  and  _175
REMARK   67  A    between atoms: _175  and  _176
REMARK   68  A    between atoms: _175  and  _178
REMARK   69  A    between atoms: _178  and  _179
REMARK   70  A    between atoms: _179  and  _180
REMARK   71  A    between atoms: _180  and  _181
REMARK   72  A    between atoms: _190  and  _192
REMARK   73  A    between atoms: _192  and  _193
REMARK   74  A    between atoms: _192  and  _195
REMARK   75  A    between atoms: _195  and  _196
REMARK   76  A    between atoms: _201  and  _203
REMARK   77  A    between atoms: _203  and  _204
REMARK   78  A    between atoms: _203  and  _206
REMARK   79  A    between atoms: _206  and  _207
REMARK   80  A    between atoms: _210  and  _212
REMARK   81  A    between atoms: _212  and  _213
REMARK   82  A    between atoms: _212  and  _215
REMARK   83  A    between atoms: _215  and  _216
REMARK   84  A    between atoms: _219  and  _221
REMARK   85  A    between atoms: _221  and  _222
REMARK   86  A    between atoms: _221  and  _224
REMARK   87  A    between atoms: _224  and  _225
REMARK   88  A    between atoms: _230  and  _232
REMARK   89  A    between atoms: _232  and  _233
REMARK   90  A    between atoms: _232  and  _235
REMARK   91  A    between atoms: _235  and  _236
REMARK   92  A    between atoms: _241  and  _242
REMARK   93  A    between atoms: _244  and  _246
REMARK   94  A    between atoms: _246  and  _247
REMARK   95  A    between atoms: _246  and  _249
REMARK   96  A    between atoms: _249  and  _250
REMARK   97  A    between atoms: _253  and  _255
REMARK   98  A    between atoms: _255  and  _256
REMARK   99  A    between atoms: _255  and  _258
REMARK  100  A    between atoms: _258  and  _259
REMARK  101  A    between atoms: _264  and  _266
REMARK  102  A    between atoms: _266  and  _267
REMARK  103  A    between atoms: _266  and  _269
REMARK  104  A    between atoms: _269  and  _270
REMARK  105  A    between atoms: _275  and  _277
REMARK  106  A    between atoms: _277  and  _278
REMARK  107  A    between atoms: _277  and  _280
REMARK  108  A    between atoms: _280  and  _281
REMARK  109  A    between atoms: _284  and  _286
REMARK  110  A    between atoms: _286  and  _287
REMARK  111  A    between atoms: _286  and  _289
REMARK  112  A    between atoms: _292  and  _294
REMARK  113  A    between atoms: _294  and  _295
REMARK  114  A    between atoms: _294  and  _297
REMARK  115  A    between atoms: _297  and  _298
REMARK  116  A    between atoms: _301  and  _303
REMARK  117  A    between atoms: _303  and  _304
REMARK  118  A    between atoms: _307  and  _309
REMARK  119  A    between atoms: _309  and  _310
REMARK  120  A    between atoms: _309  and  _312
REMARK  121  A    between atoms: _312  and  _313
REMARK  122  A    between atoms: _316  and  _318
REMARK  123  A    between atoms: _318  and  _319
REMARK  124  A    between atoms: _318  and  _321
REMARK  125  A    between atoms: _321  and  _322
REMARK  126  A    between atoms: _322  and  _323
REMARK  127  A    between atoms: _326  and  _328
REMARK  128  A    between atoms: _328  and  _329
REMARK  129  A    between atoms: _328  and  _331
REMARK  130  A    between atoms: _331  and  _332
REMARK  131  A    between atoms: _337  and  _339
REMARK  132  A    between atoms: _339  and  _340
REMARK  133  A    between atoms: _342  and  _344
REMARK  134  A    between atoms: _344  and  _345
REMARK  135  A    between atoms: _344  and  _347
REMARK  136  A    between atoms: _350  and  _352
REMARK  137  A    between atoms: _352  and  _353
REMARK  138  A    between atoms: _356  and  _358
REMARK  139  A    between atoms: _358  and  _359
REMARK  140  A    between atoms: _358  and  _361
REMARK  141  A    between atoms: _361  and  _362
REMARK  142  A    between atoms: _367  and  _369
REMARK  143  A    between atoms: _369  and  _370
REMARK  144  A    between atoms: _369  and  _372
REMARK  145  A    between atoms: _372  and  _373
REMARK  146  A    between atoms: _373  and  _374
REMARK  147  A    between atoms: _374  and  _375
REMARK  148  A    between atoms: _375  and  _376
REMARK  149  A    between atoms: _380  and  _382
REMARK  150  A    between atoms: _382  and  _383
REMARK  151  A    between atoms: _382  and  _385
REMARK  152  A    between atoms: _385  and  _386
REMARK  153  A    between atoms: _389  and  _391
REMARK  154  A    between atoms: _391  and  _392
REMARK  155  A    between atoms: _391  and  _394
REMARK  156  A    between atoms: _394  and  _395
REMARK  157  A    between atoms: _400  and  _402
REMARK  158  A    between atoms: _402  and  _403
REMARK  159  A    between atoms: _405  and  _407
REMARK  160  A    between atoms: _407  and  _408
REMARK  161  A    between atoms: _407  and  _410
REMARK  162  A    between atoms: _410  and  _411
REMARK  163  A    between atoms: _414  and  _416
REMARK  164  A    between atoms: _416  and  _417
REMARK  165  A    between atoms: _416  and  _419
REMARK  166  A    between atoms: _419  and  _420
REMARK  167  A    between atoms: _420  and  _421
REMARK  168  A    between atoms: _421  and  _422
REMARK  169  A    between atoms: _422  and  _423
REMARK  170  A    between atoms: _427  and  _429
REMARK  171  A    between atoms: _429  and  _430
REMARK  172  A    between atoms: _429  and  _432
REMARK  173  A    between atoms: _432  and  _433
REMARK  174  A    between atoms: _433  and  _434
REMARK  175  A    between atoms: _434  and  _435
REMARK  176  A    between atoms: _444  and  _446
REMARK  177  A    between atoms: _446  and  _447
REMARK  178  A    between atoms: _446  and  _449
REMARK  179  A    between atoms: _449  and  _450
REMARK  180  A    between atoms: _455  and  _457
REMARK  181  A    between atoms: _457  and  _458
REMARK  182  A    between atoms: _457  and  _460
REMARK  183  A    between atoms: _460  and  _461
REMARK  184  A    between atoms: _466  and  _467
REMARK  185  A    between atoms: _469  and  _471
REMARK  186  A    between atoms: _471  and  _472
REMARK  187  A    between atoms: _471  and  _474
REMARK  188  A    between atoms: _474  and  _475
REMARK  189  A    between atoms: _475  and  _476
REMARK  190  A    between atoms: _476  and  _477
REMARK  191  A    between atoms: _477  and  _478
REMARK  192  A    between atoms: _482  and  _484
REMARK  193  A    between atoms: _484  and  _485
REMARK  194  A    between atoms: _484  and  _487
REMARK  195  A    between atoms: _487  and  _488
REMARK  196  A    between atoms: _490  and  _492
REMARK  197  A    between atoms: _492  and  _493
REMARK  198  A    between atoms: _492  and  _495
REMARK  199  A    between atoms: _495  and  _496
REMARK  200  A    between atoms: _499  and  _501
REMARK  201  A    between atoms: _501  and  _502
REMARK  202  A    between atoms: _501  and  _504
REMARK  203  A    between atoms: _504  and  _505
REMARK  204  A    between atoms: _505  and  _506
REMARK  205  A    between atoms: _509  and  _511
REMARK  206  A    between atoms: _511  and  _512
REMARK  207  A    between atoms: _515  and  _517
REMARK  208  A    between atoms: _517  and  _518
REMARK  209  A    between atoms: _517  and  _520
REMARK  210  A    between atoms: _520  and  _521
REMARK  211  A    between atoms: _523  and  _525
REMARK  212  A    between atoms: _525  and  _526
REMARK  213  A    between atoms: _528  and  _530
REMARK  214  A    between atoms: _530  and  _531
REMARK  215  A    between atoms: _530  and  _533
REMARK  216  A    between atoms: _533  and  _534
REMARK  217  A    between atoms: _537  and  _539
REMARK  218  A    between atoms: _539  and  _540
REMARK  219  A    between atoms: _542  and  _544
REMARK  220  A    between atoms: _544  and  _545
REMARK  221  A    between atoms: _544  and  _547
REMARK  222  A    between atoms: _547  and  _548
REMARK  223  A    between atoms: _553  and  _555
REMARK  224  A    between atoms: _555  and  _556
REMARK  225  A    between atoms: _555  and  _558
REMARK  226  A    between atoms: _558  and  _559
REMARK  227  A    between atoms: _559  and  _560
REMARK  228  A    between atoms: _567  and  _568
REMARK  229  A    between atoms: _568  and  _584
REMARK  230  A    between atoms: _569  and  _571
REMARK  231  A    between atoms: _571  and  _572
REMARK  232  A    between atoms: _572  and  _573
REMARK  233  A    between atoms: _577  and  _579
REMARK  234  A    between atoms: _579  and  _580
REMARK  235  A    between atoms: _579  and  _587
REMARK  236  A    between atoms: _580  and  _581
REMARK  237  A    between atoms: _581  and  _582
REMARK  238  A    between atoms: _582  and  _583
REMARK  239  A    between atoms: _583  and  _584
REMARK  240  A    between atoms: _589  and  _591
REMARK  241  A    between atoms: _591  and  _592
REMARK  242  A    between atoms: _591  and  _594
REMARK  243  A    between atoms: _594  and  _595
REMARK  244  A    between atoms: _598  and  _600
REMARK  245  A    between atoms: _600  and  _601
REMARK  246  A    between atoms: _603  and  _605
REMARK  247  A    between atoms: _605  and  _606
REMARK  248  A    between atoms: _609  and  _611
REMARK  249  A    between atoms: _611  and  _612
REMARK  250  A    between atoms: _611  and  _614
REMARK  251  A    between atoms: _614  and  _615
REMARK  252  A    between atoms: _618  and  _620
REMARK  253  A    between atoms: _620  and  _621
REMARK  254  A    between atoms: _620  and  _623
REMARK  255  A    between atoms: _623  and  _624
REMARK  256  A    between atoms: _629  and  _630
REMARK                            x       y       z     vdW  Elec       q    Type
REMARK                         _______ _______ _______ _____ _____    ______ ____
ROOT
ATOM      1  CG  TYR A   1      33.343  11.427  36.398  0.00  0.00    -0.020 A 
ATOM      2  CD2 TYR A   1      32.942  12.759  36.523  0.00  0.00    -0.001 A 
ATOM      3  CE2 TYR A   1      33.009  13.646  35.432  0.00  0.00    +0.036 A 
ATOM      4  CZ  TYR A   1      33.474  13.171  34.221  0.00  0.00    +0.134 A 
ATOM      5  CE1 TYR A   1      33.873  11.838  34.078  0.00  0.00    +0.036 A 
ATOM      6  CD1 TYR A   1      33.802  10.988  35.153  0.00  0.00    -0.001 A 
ENDROOT
BRANCH   4   7
ATOM      7  OH  TYR A   1      33.535  14.008  33.136  0.00  0.00    -0.506 OA
ATOM      8  HH  TYR A   1      33.888  13.511  32.356  0.00  0.00    +0.292 HD
ENDBRANCH   4   7
BRANCH   1   9
ATOM      9  CB  TYR A   1      33.295  10.486  37.573  0.00  0.00    +0.051 C 
BRANCH   9  10
ATOM     10  CA  TYR A   1      34.618  10.390  38.328  0.00  0.00    +0.137 C 
BRANCH  10  11
ATOM     11  N   TYR A   1      34.656   9.174  39.130  0.00  0.00    -0.239 NA
ATOM     12  H   TYR A   1      33.790   8.859  39.612  0.00  0.00    +0.142 HD
ENDBRANCH  10  11
BRANCH  10  13
ATOM     13  C   TYR A   1      34.885  11.625  39.215  0.00  0.00    +0.224 C 
ATOM     14  O   TYR A   1      33.999  12.094  39.945  0.00  0.00    -0.287 OA
ENDBRANCH  10  13
ENDBRANCH   9  10
ENDBRANCH   1   9
TORSDOF 5
REMARK  Name = ../refined-set-2016/3syr/3syr_pocket.pdb
REMARK  256 active torsions:
REMARK  status: ('A' for Active; 'I' for Inactive)
REMARK    1  A    between atoms: _1  and  _3
REMARK    2  A    between atoms: _3  and  _4
REMARK    3  A    between atoms: _3  and  _6
REMARK    4  A    between atoms: _6  and  _7
REMARK    5  A    between atoms: _12  and  _13
REMARK    6  A    between atoms: _15  and  _17
REMARK    7  A    between atoms: _17  and  _18
REMARK    8  A    between atoms: _17  and  _20
REMARK    9  A    between atoms: _20  and  _21
REMARK   10  A    between atoms: _21  and  _22
REMARK   11  A    between atoms: _25  and  _27
REMARK   12  A    between atoms: _27  and  _28
REMARK   13  A    between atoms: _27  and  _30
REMARK   14  A    between atoms: _30  and  _31
REMARK   15  A    between atoms: _36  and  _37
REMARK   16  A    between atoms: _39  and  _41
REMARK   17  A    between atoms: _41  and  _42
REMARK   18  A    between atoms: _41  and  _44
REMARK   19  A    between atoms: _44  and  _45
REMARK   20  A    between atoms: _50  and  _52
REMARK   21  A    between atoms: _52  and  _53
REMARK   22  A    between atoms: _55  and  _57
REMARK   23  A    between atoms: _57  and  _58
REMARK   24  A    between atoms: _60  and  _62
REMARK   25  A    between atoms: _62  and  _63
REMARK   26  A    between atoms: _62  and  _65
REMARK   27  A    between atoms: _65  and  _66
REMARK   28  A    between atoms: _69  and  _71
REMARK   29  A    between atoms: _71  and  _72
REMARK   30  A    between atoms: _74  and  _76
REMARK   31  A    between atoms: _76  and  _77
REMARK   32  A    between atoms: _76  and  _79
REMARK   33  A    between atoms: _79  and  _80
REMARK   34  A    between atoms: _80  and  _81
REMARK   35  A    between atoms: _81  and  _82
REMARK   36  A    between atoms: _91  and  _93
REMARK   37  A    between atoms: _93  and  _94
REMARK   38  A    between atoms: _93  and  _96
REMARK   39  A    between atoms: _96  and  _97
REMARK   40  A    between atoms: _100  and  _102
REMARK   41  A    between atoms: _102  and  _103
REMARK   42  A    between atoms: _106  and  _108
REMARK   43  A    between atoms: _108  and  _109
REMARK   44  A    between atoms: _108  and  _111
REMARK   45  A    between atoms: _111  and  _112
REMARK   46  A    between atoms: _118  and  _120
REMARK   47  A    between atoms: _120  and  _121
REMARK   48  A    between atoms: _120  and  _123
REMARK   49  A    between atoms: _123  and  _124
REMARK   50  A    between atoms: _129  and  _131
REMARK   51  A    between atoms: _131  and  _132
REMARK   52  A    between atoms: _131  and  _134
REMARK   53  A    between atoms: _134  and  _135
REMARK   54  A    between atoms: _138  and  _140
REMARK   55  A    between atoms: _140  and  _141
REMARK   56  A    between atoms: _140  and  _143
REMARK   57  A    between atoms: _143  and  _144
REMARK   58  A    between atoms: _149  and  _151
REMARK   59  A    between atoms: _151  and  _152
REMARK   60  A    between atoms: _151  and  _154
REMARK   61  A    between atoms: _154  and  _155
REMARK   62  A    between atoms: _161  and  _163
REMARK   63  A    between atoms: _163  and  _164
REMARK   64  A    between atoms: _163  and  _166
REMARK   65  A    between atoms: _166  and  _167
REMARK   66  A    between atoms: _173  and  _175
REMARK   67  A    between atoms: _175  and  _176
REMARK   68  A    between atoms: _175  and  _178
REMARK   69  A    between atoms: _178  and  _179
REMARK   70  A    between atoms: _179  and  _180
REMARK   71  A    between atoms: _180  and  _181
REMARK   72  A    between atoms: _190  and  _192
REMARK   73  A    between atoms: _192  and  _193
REMARK   74  A    between atoms: _192  and  _195
REMARK   75  A    between atoms: _195  and  _196
REMARK   76  A    between atoms: _201  and  _203
REMARK   77  A    between atoms: _203  and  _204
REMARK   78  A    between atoms: _203  and  _206
REMARK   79  A    between atoms: _206  and  _207
REMARK   80  A    between atoms: _210  and  _212
REMARK   81  A    between atoms: _212  and  _213
REMARK   82  A    between atoms: _212  and  _215
REMARK   83  A    between atoms: _215  and  _216
REMARK   84  A    between atoms: _219  and  _221
REMARK   85  A    between atoms: _221  and  _222
REMARK   86  A    between atoms: _221  and  _224
REMARK   87  A    between atoms: _224  and  _225
REMARK   88  A    between atoms: _230  and  _232
REMARK   89  A    between atoms: _232  and  _233
REMARK   90  A    between atoms: _232  and  _235
REMARK   91  A    between atoms: _235  and  _236
REMARK   92  A    between atoms: _241  and  _242
REMARK   93  A    between atoms: _244  and  _246
REMARK   94  A    between atoms: _246  and  _247
REMARK   95  A    between atoms: _246  and  _249
REMARK   96  A    between atoms: _249  and  _250
REMARK   97  A    between atoms: _253  and  _255
REMARK   98  A    between atoms: _255  and  _256
REMARK   99  A    between atoms: _255  and  _258
REMARK  100  A    between atoms: _258  and  _259
REMARK  101  A    between atoms: _264  and  _266
REMARK  102  A    between atoms: _266  and  _267
REMARK  103  A    between atoms: _266  and  _269
REMARK  104  A    between atoms: _269  and  _270
REMARK  105  A    between atoms: _275  and  _277
REMARK  106  A    between atoms: _277  and  _278
REMARK  107  A    between atoms: _277  and  _280
REMARK  108  A    between atoms: _280  and  _281
REMARK  109  A    between atoms: _284  and  _286
REMARK  110  A    between atoms: _286  and  _287
REMARK  111  A    between atoms: _286  and  _289
REMARK  112  A    between atoms: _292  and  _294
REMARK  113  A    between atoms: _294  and  _295
REMARK  114  A    between atoms: _294  and  _297
REMARK  115  A    between atoms: _297  and  _298
REMARK  116  A    between atoms: _301  and  _303
REMARK  117  A    between atoms: _303  and  _304
REMARK  118  A    between atoms: _307  and  _309
REMARK  119  A    between atoms: _309  and  _310
REMARK  120  A    between atoms: _309  and  _312
REMARK  121  A    between atoms: _312  and  _313
REMARK  122  A    between atoms: _316  and  _318
REMARK  123  A    between atoms: _318  and  _319
REMARK  124  A    between atoms: _318  and  _321
REMARK  125  A    between atoms: _321  and  _322
REMARK  126  A    between atoms: _322  and  _323
REMARK  127  A    between atoms: _326  and  _328
REMARK  128  A    between atoms: _328  and  _329
REMARK  129  A    between atoms: _328  and  _331
REMARK  130  A    between atoms: _331  and  _332
REMARK  131  A    between atoms: _337  and  _339
REMARK  132  A    between atoms: _339  and  _340
REMARK  133  A    between atoms: _342  and  _344
REMARK  134  A    between atoms: _344  and  _345
REMARK  135  A    between atoms: _344  and  _347
REMARK  136  A    between atoms: _350  and  _352
REMARK  137  A    between atoms: _352  and  _353
REMARK  138  A    between atoms: _356  and  _358
REMARK  139  A    between atoms: _358  and  _359
REMARK  140  A    between atoms: _358  and  _361
REMARK  141  A    between atoms: _361  and  _362
REMARK  142  A    between atoms: _367  and  _369
REMARK  143  A    between atoms: _369  and  _370
REMARK  144  A    between atoms: _369  and  _372
REMARK  145  A    between atoms: _372  and  _373
REMARK  146  A    between atoms: _373  and  _374
REMARK  147  A    between atoms: _374  and  _375
REMARK  148  A    between atoms: _375  and  _376
REMARK  149  A    between atoms: _380  and  _382
REMARK  150  A    between atoms: _382  and  _383
REMARK  151  A    between atoms: _382  and  _385
REMARK  152  A    between atoms: _385  and  _386
REMARK  153  A    between atoms: _389  and  _391
REMARK  154  A    between atoms: _391  and  _392
REMARK  155  A    between atoms: _391  and  _394
REMARK  156  A    between atoms: _394  and  _395
REMARK  157  A    between atoms: _400  and  _402
REMARK  158  A    between atoms: _402  and  _403
REMARK  159  A    between atoms: _405  and  _407
REMARK  160  A    between atoms: _407  and  _408
REMARK  161  A    between atoms: _407  and  _410
REMARK  162  A    between atoms: _410  and  _411
REMARK  163  A    between atoms: _414  and  _416
REMARK  164  A    between atoms: _416  and  _417
REMARK  165  A    between atoms: _416  and  _419
REMARK  166  A    between atoms: _419  and  _420
REMARK  167  A    between atoms: _420  and  _421
REMARK  168  A    between atoms: _421  and  _422
REMARK  169  A    between atoms: _422  and  _423
REMARK  170  A    between atoms: _427  and  _429
REMARK  171  A    between atoms: _429  and  _430
REMARK  172  A    between atoms: _429  and  _432
REMARK  173  A    between atoms: _432  and  _433
REMARK  174  A    between atoms: _433  and  _434
REMARK  175  A    between atoms: _434  and  _435
REMARK  176  A    between atoms: _444  and  _446
REMARK  177  A    between atoms: _446  and  _447
REMARK  178  A    between atoms: _446  and  _449
REMARK  179  A    between atoms: _449  and  _450
REMARK  180  A    between atoms: _455  and  _457
REMARK  181  A    between atoms: _457  and  _458
REMARK  182  A    between atoms: _457  and  _460
REMARK  183  A    between atoms: _460  and  _461
REMARK  184  A    between atoms: _466  and  _467
REMARK  185  A    between atoms: _469  and  _471
REMARK  186  A    between atoms: _471  and  _472
REMARK  187  A    between atoms: _471  and  _474
REMARK  188  A    between atoms: _474  and  _475
REMARK  189  A    between atoms: _475  and  _476
REMARK  190  A    between atoms: _476  and  _477
REMARK  191  A    between atoms: _477  and  _478
REMARK  192  A    between atoms: _482  and  _484
REMARK  193  A    between atoms: _484  and  _485
REMARK  194  A    between atoms: _484  and  _487
REMARK  195  A    between atoms: _487  and  _488
REMARK  196  A    between atoms: _490  and  _492
REMARK  197  A    between atoms: _492  and  _493
REMARK  198  A    between atoms: _492  and  _495
REMARK  199  A    between atoms: _495  and  _496
REMARK  200  A    between atoms: _499  and  _501
REMARK  201  A    between atoms: _501  and  _502
REMARK  202  A    between atoms: _501  and  _504
REMARK  203  A    between atoms: _504  and  _505
REMARK  204  A    between atoms: _505  and  _506
REMARK  205  A    between atoms: _509  and  _511
REMARK  206  A    between atoms: _511  and  _512
REMARK  207  A    between atoms: _515  and  _517
REMARK  208  A    between atoms: _517  and  _518
REMARK  209  A    between atoms: _517  and  _520
REMARK  210  A    between atoms: _520  and  _521
REMARK  211  A    between atoms: _523  and  _525
REMARK  212  A    between atoms: _525  and  _526
REMARK  213  A    between atoms: _528  and  _530
REMARK  214  A    between atoms: _530  and  _531
REMARK  215  A    between atoms: _530  and  _533
REMARK  216  A    between atoms: _533  and  _534
REMARK  217  A    between atoms: _537  and  _539
REMARK  218  A    between atoms: _539  and  _540
REMARK  219  A    between atoms: _542  and  _544
REMARK  220  A    between atoms: _544  and  _545
REMARK  221  A    between atoms: _544  and  _547
REMARK  222  A    between atoms: _547  and  _548
REMARK  223  A    between atoms: _553  and  _555
REMARK  224  A    between atoms: _555  and  _556
REMARK  225  A    between atoms: _555  and  _558
REMARK  226  A    between atoms: _558  and  _559
REMARK  227  A    between atoms: _559  and  _560
REMARK  228  A    between atoms: _567  and  _568
REMARK  229  A    between atoms: _568  and  _584
REMARK  230  A    between atoms: _569  and  _571
REMARK  231  A    between atoms: _571  and  _572
REMARK  232  A    between atoms: _572  and  _573
REMARK  233  A    between atoms: _577  and  _579
REMARK  234  A    between atoms: _579  and  _580
REMARK  235  A    between atoms: _579  and  _587
REMARK  236  A    between atoms: _580  and  _581
REMARK  237  A    between atoms: _581  and  _582
REMARK  238  A    between atoms: _582  and  _583
REMARK  239  A    between atoms: _583  and  _584
REMARK  240  A    between atoms: _589  and  _591
REMARK  241  A    between atoms: _591  and  _592
REMARK  242  A    between atoms: _591  and  _594
REMARK  243  A    between atoms: _594  and  _595
REMARK  244  A    between atoms: _598  and  _600
REMARK  245  A    between atoms: _600  and  _601
REMARK  246  A    between atoms: _603  and  _605
REMARK  247  A    between atoms: _605  and  _606
REMARK  248  A    between atoms: _609  and  _611
REMARK  249  A    between atoms: _611  and  _612
REMARK  250  A    between atoms: _611  and  _614
REMARK  251  A    between atoms: _614  and  _615
REMARK  252  A    between atoms: _618  and  _620
REMARK  253  A    between atoms: _620  and  _621
REMARK  254  A    between atoms: _620  and  _623
REMARK  255  A    between atoms: _623  and  _624
REMARK  256  A    between atoms: _629  and  _630
REMARK                            x       y       z     vdW  Elec       q    Type
REMARK                         _______ _______ _______ _____ _____    ______ ____
ROOT
ATOM      1  CA  GLU A   1      31.649  20.680  38.823  0.00  0.00    +0.134 C 
ENDROOT
BRANCH   1   2
ATOM      2  N   GLU A   1      32.970  20.201  39.245  0.00  0.00    -0.239 NA
ATOM      3  H   GLU A   1      33.423  19.421  38.727  0.00  0.00    +0.142 HD
ENDBRANCH   1   2
BRANCH   1   4
ATOM      4  C   GLU A   1      30.675  19.543  38.590  0.00  0.00    +0.224 C 
ATOM      5  O   GLU A   1      30.983  18.565  37.871  0.00  0.00    -0.287 OA
ENDBRANCH   1   4
BRANCH   1   6
ATOM      6  CB  GLU A   1      31.780  21.554  37.560  0.00  0.00    +0.037 C 
BRANCH   6   7
ATOM      7  CG  GLU A   1      32.472  22.856  37.779  0.00  0.00    +0.116 C 
BRANCH   7   8
ATOM      8  CD  GLU A   1      32.476  23.768  36.558  0.00  0.00    +0.365 C 
ATOM      9  OE2 GLU A   1      33.404  24.605  36.494  0.00  0.00    -0.246 OA
ATOM     10  OE1 GLU A   1      31.562  23.681  35.686  0.00  0.00    -0.246 OA
ENDBRANCH   7   8
ENDBRANCH   6   7
ENDBRANCH   1   6
TORSDOF 5
REMARK  Name = ../refined-set-2016/3syr/3syr_pocket.pdb
REMARK  256 active torsions:
REMARK  status: ('A' for Active; 'I' for Inactive)
REMARK    1  A    between atoms: _1  and  _3
REMARK    2  A    between atoms: _3  and  _4
REMARK    3  A    between atoms: _3  and  _6
REMARK    4  A    between atoms: _6  and  _7
REMARK    5  A    between atoms: _12  and  _13
REMARK    6  A    between atoms: _15  and  _17
REMARK    7  A    between atoms: _17  and  _18
REMARK    8  A    between atoms: _17  and  _20
REMARK    9  A    between atoms: _20  and  _21
REMARK   10  A    between atoms: _21  and  _22
REMARK   11  A    between atoms: _25  and  _27
REMARK   12  A    between atoms: _27  and  _28
REMARK   13  A    between atoms: _27  and  _30
REMARK   14  A    between atoms: _30  and  _31
REMARK   15  A    between atoms: _36  and  _37
REMARK   16  A    between atoms: _39  and  _41
REMARK   17  A    between atoms: _41  and  _42
REMARK   18  A    between atoms: _41  and  _44
REMARK   19  A    between atoms: _44  and  _45
REMARK   20  A    between atoms: _50  and  _52
REMARK   21  A    between atoms: _52  and  _53
REMARK   22  A    between atoms: _55  and  _57
REMARK   23  A    between atoms: _57  and  _58
REMARK   24  A    between atoms: _60  and  _62
REMARK   25  A    between atoms: _62  and  _63
REMARK   26  A    between atoms: _62  and  _65
REMARK   27  A    between atoms: _65  and  _66
REMARK   28  A    between atoms: _69  and  _71
REMARK   29  A    between atoms: _71  and  _72
REMARK   30  A    between atoms: _74  and  _76
REMARK   31  A    between atoms: _76  and  _77
REMARK   32  A    between atoms: _76  and  _79
REMARK   33  A    between atoms: _79  and  _80
REMARK   34  A    between atoms: _80  and  _81
REMARK   35  A    between atoms: _81  and  _82
REMARK   36  A    between atoms: _91  and  _93
REMARK   37  A    between atoms: _93  and  _94
REMARK   38  A    between atoms: _93  and  _96
REMARK   39  A    between atoms: _96  and  _97
REMARK   40  A    between atoms: _100  and  _102
REMARK   41  A    between atoms: _102  and  _103
REMARK   42  A    between atoms: _106  and  _108
REMARK   43  A    between atoms: _108  and  _109
REMARK   44  A    between atoms: _108  and  _111
REMARK   45  A    between atoms: _111  and  _112
REMARK   46  A    between atoms: _118  and  _120
REMARK   47  A    between atoms: _120  and  _121
REMARK   48  A    between atoms: _120  and  _123
REMARK   49  A    between atoms: _123  and  _124
REMARK   50  A    between atoms: _129  and  _131
REMARK   51  A    between atoms: _131  and  _132
REMARK   52  A    between atoms: _131  and  _134
REMARK   53  A    between atoms: _134  and  _135
REMARK   54  A    between atoms: _138  and  _140
REMARK   55  A    between atoms: _140  and  _141
REMARK   56  A    between atoms: _140  and  _143
REMARK   57  A    between atoms: _143  and  _144
REMARK   58  A    between atoms: _149  and  _151
REMARK   59  A    between atoms: _151  and  _152
REMARK   60  A    between atoms: _151  and  _154
REMARK   61  A    between atoms: _154  and  _155
REMARK   62  A    between atoms: _161  and  _163
REMARK   63  A    between atoms: _163  and  _164
REMARK   64  A    between atoms: _163  and  _166
REMARK   65  A    between atoms: _166  and  _167
REMARK   66  A    between atoms: _173  and  _175
REMARK   67  A    between atoms: _175  and  _176
REMARK   68  A    between atoms: _175  and  _178
REMARK   69  A    between atoms: _178  and  _179
REMARK   70  A    between atoms: _179  and  _180
REMARK   71  A    between atoms: _180  and  _181
REMARK   72  A    between atoms: _190  and  _192
REMARK   73  A    between atoms: _192  and  _193
REMARK   74  A    between atoms: _192  and  _195
REMARK   75  A    between atoms: _195  and  _196
REMARK   76  A    between atoms: _201  and  _203
REMARK   77  A    between atoms: _203  and  _204
REMARK   78  A    between atoms: _203  and  _206
REMARK   79  A    between atoms: _206  and  _207
REMARK   80  A    between atoms: _210  and  _212
REMARK   81  A    between atoms: _212  and  _213
REMARK   82  A    between atoms: _212  and  _215
REMARK   83  A    between atoms: _215  and  _216
REMARK   84  A    between atoms: _219  and  _221
REMARK   85  A    between atoms: _221  and  _222
REMARK   86  A    between atoms: _221  and  _224
REMARK   87  A    between atoms: _224  and  _225
REMARK   88  A    between atoms: _230  and  _232
REMARK   89  A    between atoms: _232  and  _233
REMARK   90  A    between atoms: _232  and  _235
REMARK   91  A    between atoms: _235  and  _236
REMARK   92  A    between atoms: _241  and  _242
REMARK   93  A    between atoms: _244  and  _246
REMARK   94  A    between atoms: _246  and  _247
REMARK   95  A    between atoms: _246  and  _249
REMARK   96  A    between atoms: _249  and  _250
REMARK   97  A    between atoms: _253  and  _255
REMARK   98  A    between atoms: _255  and  _256
REMARK   99  A    between atoms: _255  and  _258
REMARK  100  A    between atoms: _258  and  _259
REMARK  101  A    between atoms: _264  and  _266
REMARK  102  A    between atoms: _266  and  _267
REMARK  103  A    between atoms: _266  and  _269
REMARK  104  A    between atoms: _269  and  _270
REMARK  105  A    between atoms: _275  and  _277
REMARK  106  A    between atoms: _277  and  _278
REMARK  107  A    between atoms: _277  and  _280
REMARK  108  A    between atoms: _280  and  _281
REMARK  109  A    between atoms: _284  and  _286
REMARK  110  A    between atoms: _286  and  _287
REMARK  111  A    between atoms: _286  and  _289
REMARK  112  A    between atoms: _292  and  _294
REMARK  113  A    between atoms: _294  and  _295
REMARK  114  A    between atoms: _294  and  _297
REMARK  115  A    between atoms: _297  and  _298
REMARK  116  A    between atoms: _301  and  _303
REMARK  117  A    between atoms: _303  and  _304
REMARK  118  A    between atoms: _307  and  _309
REMARK  119  A    between atoms: _309  and  _310
REMARK  120  A    between atoms: _309  and  _312
REMARK  121  A    between atoms: _312  and  _313
REMARK  122  A    between atoms: _316  and  _318
REMARK  123  A    between atoms: _318  and  _319
REMARK  124  A    between atoms: _318  and  _321
REMARK  125  A    between atoms: _321  and  _322
REMARK  126  A    between atoms: _322  and  _323
REMARK  127  A    between atoms: _326  and  _328
REMARK  128  A    between atoms: _328  and  _329
REMARK  129  A    between atoms: _328  and  _331
REMARK  130  A    between atoms: _331  and  _332
REMARK  131  A    between atoms: _337  and  _339
REMARK  132  A    between atoms: _339  and  _340
REMARK  133  A    between atoms: _342  and  _344
REMARK  134  A    between atoms: _344  and  _345
REMARK  135  A    between atoms: _344  and  _347
REMARK  136  A    between atoms: _350  and  _352
REMARK  137  A    between atoms: _352  and  _353
REMARK  138  A    between atoms: _356  and  _358
REMARK  139  A    between atoms: _358  and  _359
REMARK  140  A    between atoms: _358  and  _361
REMARK  141  A    between atoms: _361  and  _362
REMARK  142  A    between atoms: _367  and  _369
REMARK  143  A    between atoms: _369  and  _370
REMARK  144  A    between atoms: _369  and  _372
REMARK  145  A    between atoms: _372  and  _373
REMARK  146  A    between atoms: _373  and  _374
REMARK  147  A    between atoms: _374  and  _375
REMARK  148  A    between atoms: _375  and  _376
REMARK  149  A    between atoms: _380  and  _382
REMARK  150  A    between atoms: _382  and  _383
REMARK  151  A    between atoms: _382  and  _385
REMARK  152  A    between atoms: _385  and  _386
REMARK  153  A    between atoms: _389  and  _391
REMARK  154  A    between atoms: _391  and  _392
REMARK  155  A    between atoms: _391  and  _394
REMARK  156  A    between atoms: _394  and  _395
REMARK  157  A    between atoms: _400  and  _402
REMARK  158  A    between atoms: _402  and  _403
REMARK  159  A    between atoms: _405  and  _407
REMARK  160  A    between atoms: _407  and  _408
REMARK  161  A    between atoms: _407  and  _410
REMARK  162  A    between atoms: _410  and  _411
REMARK  163  A    between atoms: _414  and  _416
REMARK  164  A    between atoms: _416  and  _417
REMARK  165  A    between atoms: _416  and  _419
REMARK  166  A    between atoms: _419  and  _420
REMARK  167  A    between atoms: _420  and  _421
REMARK  168  A    between atoms: _421  and  _422
REMARK  169  A    between atoms: _422  and  _423
REMARK  170  A    between atoms: _427  and  _429
REMARK  171  A    between atoms: _429  and  _430
REMARK  172  A    between atoms: _429  and  _432
REMARK  173  A    between atoms: _432  and  _433
REMARK  174  A    between atoms: _433  and  _434
REMARK  175  A    between atoms: _434  and  _435
REMARK  176  A    between atoms: _444  and  _446
REMARK  177  A    between atoms: _446  and  _447
REMARK  178  A    between atoms: _446  and  _449
REMARK  179  A    between atoms: _449  and  _450
REMARK  180  A    between atoms: _455  and  _457
REMARK  181  A    between atoms: _457  and  _458
REMARK  182  A    between atoms: _457  and  _460
REMARK  183  A    between atoms: _460  and  _461
REMARK  184  A    between atoms: _466  and  _467
REMARK  185  A    between atoms: _469  and  _471
REMARK  186  A    between atoms: _471  and  _472
REMARK  187  A    between atoms: _471  and  _474
REMARK  188  A    between atoms: _474  and  _475
REMARK  189  A    between atoms: _475  and  _476
REMARK  190  A    between atoms: _476  and  _477
REMARK  191  A    between atoms: _477  and  _478
REMARK  192  A    between atoms: _482  and  _484
REMARK  193  A    between atoms: _484  and  _485
REMARK  194  A    between atoms: _484  and  _487
REMARK  195  A    between atoms: _487  and  _488
REMARK  196  A    between atoms: _490  and  _492
REMARK  197  A    between atoms: _492  and  _493
REMARK  198  A    between atoms: _492  and  _495
REMARK  199  A    between atoms: _495  and  _496
REMARK  200  A    between atoms: _499  and  _501
REMARK  201  A    between atoms: _501  and  _502
REMARK  202  A    between atoms: _501  and  _504
REMARK  203  A    between atoms: _504  and  _505
REMARK  204  A    between atoms: _505  and  _506
REMARK  205  A    between atoms: _509  and  _511
REMARK  206  A    between atoms: _511  and  _512
REMARK  207  A    between atoms: _515  and  _517
REMARK  208  A    between atoms: _517  and  _518
REMARK  209  A    between atoms: _517  and  _520
REMARK  210  A    between atoms: _520  and  _521
REMARK  211  A    between atoms: _523  and  _525
REMARK  212  A    between atoms: _525  and  _526
REMARK  213  A    between atoms: _528  and  _530
REMARK  214  A    between atoms: _530  and  _531
REMARK  215  A    between atoms: _530  and  _533
REMARK  216  A    between atoms: _533  and  _534
REMARK  217  A    between atoms: _537  and  _539
REMARK  218  A    between atoms: _539  and  _540
REMARK  219  A    between atoms: _542  and  _544
REMARK  220  A    between atoms: _544  and  _545
REMARK  221  A    between atoms: _544  and  _547
REMARK  222  A    between atoms: _547  and  _548
REMARK  223  A    between atoms: _553  and  _555
REMARK  224  A    between atoms: _555  and  _556
REMARK  225  A    between atoms: _555  and  _558
REMARK  226  A    between atoms: _558  and  _559
REMARK  227  A    between atoms: _559  and  _560
REMARK  228  A    between atoms: _567  and  _568
REMARK  229  A    between atoms: _568  and  _584
REMARK  230  A    between atoms: _569  and  _571
REMARK  231  A    between atoms: _571  and  _572
REMARK  232  A    between atoms: _572  and  _573
REMARK  233  A    between atoms: _577  and  _579
REMARK  234  A    between atoms: _579  and  _580
REMARK  235  A    between atoms: _579  and  _587
REMARK  236  A    between atoms: _580  and  _581
REMARK  237  A    between atoms: _581  and  _582
REMARK  238  A    between atoms: _582  and  _583
REMARK  239  A    between atoms: _583  and  _584
REMARK  240  A    between atoms: _589  and  _591
REMARK  241  A    between atoms: _591  and  _592
REMARK  242  A    between atoms: _591  and  _594
REMARK  243  A    between atoms: _594  and  _595
REMARK  244  A    between atoms: _598  and  _600
REMARK  245  A    between atoms: _600  and  _601
REMARK  246  A    between atoms: _603  and  _605
REMARK  247  A    between atoms: _605  and  _606
REMARK  248  A    between atoms: _609  and  _611
REMARK  249  A    between atoms: _611  and  _612
REMARK  250  A    between atoms: _611  and  _614
REMARK  251  A    between atoms: _614  and  _615
REMARK  252  A    between atoms: _618  and  _620
REMARK  253  A    between atoms: _620  and  _621
REMARK  254  A    between atoms: _620  and  _623
REMARK  255  A    between atoms: _623  and  _624
REMARK  256  A    between atoms: _629  and  _630
REMARK                            x       y       z     vdW  Elec       q    Type
REMARK                         _______ _______ _______ _____ _____    ______ ____
ROOT
ATOM      1  CG  TYR A   1      25.422  22.880  35.699  0.00  0.00    -0.020 A 
ATOM      2  CD2 TYR A   1      24.468  23.407  36.588  0.00  0.00    -0.001 A 
ATOM      3  CE2 TYR A   1      23.932  24.692  36.386  0.00  0.00    +0.036 A 
ATOM      4  CZ  TYR A   1      24.349  25.433  35.269  0.00  0.00    +0.134 A 
ATOM      5  CE1 TYR A   1      25.259  24.910  34.373  0.00  0.00    +0.036 A 
ATOM      6  CD1 TYR A   1      25.789  23.646  34.589  0.00  0.00    -0.001 A 
ENDROOT
BRANCH   4   7
ATOM      7  OH  TYR A   1      23.850  26.691  34.995  0.00  0.00    -0.506 OA
ATOM      8  HH  TYR A   1      23.212  26.954  35.705  0.00  0.00    +0.292 HD
ENDBRANCH   4   7
BRANCH   1   9
ATOM      9  CB  TYR A   1      26.008  21.499  35.871  0.00  0.00    +0.051 C 
BRANCH   9  10
ATOM     10  CA  TYR A   1      25.729  20.783  37.164  0.00  0.00    +0.137 C 
BRANCH  10  11
ATOM     11  N   TYR A   1      26.837  19.891  37.456  0.00  0.00    -0.239 NA
ATOM     12  H   TYR A   1      27.380  19.480  36.669  0.00  0.00    +0.142 HD
ENDBRANCH  10  11
BRANCH  10  13
ATOM     13  C   TYR A   1      24.411  20.008  37.092  0.00  0.00    +0.224 C 
ATOM     14  O   TYR A   1      23.912  19.676  36.005  0.00  0.00    -0.287 OA
ENDBRANCH  10  13
ENDBRANCH   9  10
ENDBRANCH   1   9
TORSDOF 5
REMARK  Name = ../refined-set-2016/3syr/3syr_pocket.pdb
REMARK  256 active torsions:
REMARK  status: ('A' for Active; 'I' for Inactive)
REMARK    1  A    between atoms: _1  and  _3
REMARK    2  A    between atoms: _3  and  _4
REMARK    3  A    between atoms: _3  and  _6
REMARK    4  A    between atoms: _6  and  _7
REMARK    5  A    between atoms: _12  and  _13
REMARK    6  A    between atoms: _15  and  _17
REMARK    7  A    between atoms: _17  and  _18
REMARK    8  A    between atoms: _17  and  _20
REMARK    9  A    between atoms: _20  and  _21
REMARK   10  A    between atoms: _21  and  _22
REMARK   11  A    between atoms: _25  and  _27
REMARK   12  A    between atoms: _27  and  _28
REMARK   13  A    between atoms: _27  and  _30
REMARK   14  A    between atoms: _30  and  _31
REMARK   15  A    between atoms: _36  and  _37
REMARK   16  A    between atoms: _39  and  _41
REMARK   17  A    between atoms: _41  and  _42
REMARK   18  A    between atoms: _41  and  _44
REMARK   19  A    between atoms: _44  and  _45
REMARK   20  A    between atoms: _50  and  _52
REMARK   21  A    between atoms: _52  and  _53
REMARK   22  A    between atoms: _55  and  _57
REMARK   23  A    between atoms: _57  and  _58
REMARK   24  A    between atoms: _60  and  _62
REMARK   25  A    between atoms: _62  and  _63
REMARK   26  A    between atoms: _62  and  _65
REMARK   27  A    between atoms: _65  and  _66
REMARK   28  A    between atoms: _69  and  _71
REMARK   29  A    between atoms: _71  and  _72
REMARK   30  A    between atoms: _74  and  _76
REMARK   31  A    between atoms: _76  and  _77
REMARK   32  A    between atoms: _76  and  _79
REMARK   33  A    between atoms: _79  and  _80
REMARK   34  A    between atoms: _80  and  _81
REMARK   35  A    between atoms: _81  and  _82
REMARK   36  A    between atoms: _91  and  _93
REMARK   37  A    between atoms: _93  and  _94
REMARK   38  A    between atoms: _93  and  _96
REMARK   39  A    between atoms: _96  and  _97
REMARK   40  A    between atoms: _100  and  _102
REMARK   41  A    between atoms: _102  and  _103
REMARK   42  A    between atoms: _106  and  _108
REMARK   43  A    between atoms: _108  and  _109
REMARK   44  A    between atoms: _108  and  _111
REMARK   45  A    between atoms: _111  and  _112
REMARK   46  A    between atoms: _118  and  _120
REMARK   47  A    between atoms: _120  and  _121
REMARK   48  A    between atoms: _120  and  _123
REMARK   49  A    between atoms: _123  and  _124
REMARK   50  A    between atoms: _129  and  _131
REMARK   51  A    between atoms: _131  and  _132
REMARK   52  A    between atoms: _131  and  _134
REMARK   53  A    between atoms: _134  and  _135
REMARK   54  A    between atoms: _138  and  _140
REMARK   55  A    between atoms: _140  and  _141
REMARK   56  A    between atoms: _140  and  _143
REMARK   57  A    between atoms: _143  and  _144
REMARK   58  A    between atoms: _149  and  _151
REMARK   59  A    between atoms: _151  and  _152
REMARK   60  A    between atoms: _151  and  _154
REMARK   61  A    between atoms: _154  and  _155
REMARK   62  A    between atoms: _161  and  _163
REMARK   63  A    between atoms: _163  and  _164
REMARK   64  A    between atoms: _163  and  _166
REMARK   65  A    between atoms: _166  and  _167
REMARK   66  A    between atoms: _173  and  _175
REMARK   67  A    between atoms: _175  and  _176
REMARK   68  A    between atoms: _175  and  _178
REMARK   69  A    between atoms: _178  and  _179
REMARK   70  A    between atoms: _179  and  _180
REMARK   71  A    between atoms: _180  and  _181
REMARK   72  A    between atoms: _190  and  _192
REMARK   73  A    between atoms: _192  and  _193
REMARK   74  A    between atoms: _192  and  _195
REMARK   75  A    between atoms: _195  and  _196
REMARK   76  A    between atoms: _201  and  _203
REMARK   77  A    between atoms: _203  and  _204
REMARK   78  A    between atoms: _203  and  _206
REMARK   79  A    between atoms: _206  and  _207
REMARK   80  A    between atoms: _210  and  _212
REMARK   81  A    between atoms: _212  and  _213
REMARK   82  A    between atoms: _212  and  _215
REMARK   83  A    between atoms: _215  and  _216
REMARK   84  A    between atoms: _219  and  _221
REMARK   85  A    between atoms: _221  and  _222
REMARK   86  A    between atoms: _221  and  _224
REMARK   87  A    between atoms: _224  and  _225
REMARK   88  A    between atoms: _230  and  _232
REMARK   89  A    between atoms: _232  and  _233
REMARK   90  A    between atoms: _232  and  _235
REMARK   91  A    between atoms: _235  and  _236
REMARK   92  A    between atoms: _241  and  _242
REMARK   93  A    between atoms: _244  and  _246
REMARK   94  A    between atoms: _246  and  _247
REMARK   95  A    between atoms: _246  and  _249
REMARK   96  A    between atoms: _249  and  _250
REMARK   97  A    between atoms: _253  and  _255
REMARK   98  A    between atoms: _255  and  _256
REMARK   99  A    between atoms: _255  and  _258
REMARK  100  A    between atoms: _258  and  _259
REMARK  101  A    between atoms: _264  and  _266
REMARK  102  A    between atoms: _266  and  _267
REMARK  103  A    between atoms: _266  and  _269
REMARK  104  A    between atoms: _269  and  _270
REMARK  105  A    between atoms: _275  and  _277
REMARK  106  A    between atoms: _277  and  _278
REMARK  107  A    between atoms: _277  and  _280
REMARK  108  A    between atoms: _280  and  _281
REMARK  109  A    between atoms: _284  and  _286
REMARK  110  A    between atoms: _286  and  _287
REMARK  111  A    between atoms: _286  and  _289
REMARK  112  A    between atoms: _292  and  _294
REMARK  113  A    between atoms: _294  and  _295
REMARK  114  A    between atoms: _294  and  _297
REMARK  115  A    between atoms: _297  and  _298
REMARK  116  A    between atoms: _301  and  _303
REMARK  117  A    between atoms: _303  and  _304
REMARK  118  A    between atoms: _307  and  _309
REMARK  119  A    between atoms: _309  and  _310
REMARK  120  A    between atoms: _309  and  _312
REMARK  121  A    between atoms: _312  and  _313
REMARK  122  A    between atoms: _316  and  _318
REMARK  123  A    between atoms: _318  and  _319
REMARK  124  A    between atoms: _318  and  _321
REMARK  125  A    between atoms: _321  and  _322
REMARK  126  A    between atoms: _322  and  _323
REMARK  127  A    between atoms: _326  and  _328
REMARK  128  A    between atoms: _328  and  _329
REMARK  129  A    between atoms: _328  and  _331
REMARK  130  A    between atoms: _331  and  _332
REMARK  131  A    between atoms: _337  and  _339
REMARK  132  A    between atoms: _339  and  _340
REMARK  133  A    between atoms: _342  and  _344
REMARK  134  A    between atoms: _344  and  _345
REMARK  135  A    between atoms: _344  and  _347
REMARK  136  A    between atoms: _350  and  _352
REMARK  137  A    between atoms: _352  and  _353
REMARK  138  A    between atoms: _356  and  _358
REMARK  139  A    between atoms: _358  and  _359
REMARK  140  A    between atoms: _358  and  _361
REMARK  141  A    between atoms: _361  and  _362
REMARK  142  A    between atoms: _367  and  _369
REMARK  143  A    between atoms: _369  and  _370
REMARK  144  A    between atoms: _369  and  _372
REMARK  145  A    between atoms: _372  and  _373
REMARK  146  A    between atoms: _373  and  _374
REMARK  147  A    between atoms: _374  and  _375
REMARK  148  A    between atoms: _375  and  _376
REMARK  149  A    between atoms: _380  and  _382
REMARK  150  A    between atoms: _382  and  _383
REMARK  151  A    between atoms: _382  and  _385
REMARK  152  A    between atoms: _385  and  _386
REMARK  153  A    between atoms: _389  and  _391
REMARK  154  A    between atoms: _391  and  _392
REMARK  155  A    between atoms: _391  and  _394
REMARK  156  A    between atoms: _394  and  _395
REMARK  157  A    between atoms: _400  and  _402
REMARK  158  A    between atoms: _402  and  _403
REMARK  159  A    between atoms: _405  and  _407
REMARK  160  A    between atoms: _407  and  _408
REMARK  161  A    between atoms: _407  and  _410
REMARK  162  A    between atoms: _410  and  _411
REMARK  163  A    between atoms: _414  and  _416
REMARK  164  A    between atoms: _416  and  _417
REMARK  165  A    between atoms: _416  and  _419
REMARK  166  A    between atoms: _419  and  _420
REMARK  167  A    between atoms: _420  and  _421
REMARK  168  A    between atoms: _421  and  _422
REMARK  169  A    between atoms: _422  and  _423
REMARK  170  A    between atoms: _427  and  _429
REMARK  171  A    between atoms: _429  and  _430
REMARK  172  A    between atoms: _429  and  _432
REMARK  173  A    between atoms: _432  and  _433
REMARK  174  A    between atoms: _433  and  _434
REMARK  175  A    between atoms: _434  and  _435
REMARK  176  A    between atoms: _444  and  _446
REMARK  177  A    between atoms: _446  and  _447
REMARK  178  A    between atoms: _446  and  _449
REMARK  179  A    between atoms: _449  and  _450
REMARK  180  A    between atoms: _455  and  _457
REMARK  181  A    between atoms: _457  and  _458
REMARK  182  A    between atoms: _457  and  _460
REMARK  183  A    between atoms: _460  and  _461
REMARK  184  A    between atoms: _466  and  _467
REMARK  185  A    between atoms: _469  and  _471
REMARK  186  A    between atoms: _471  and  _472
REMARK  187  A    between atoms: _471  and  _474
REMARK  188  A    between atoms: _474  and  _475
REMARK  189  A    between atoms: _475  and  _476
REMARK  190  A    between atoms: _476  and  _477
REMARK  191  A    between atoms: _477  and  _478
REMARK  192  A    between atoms: _482  and  _484
REMARK  193  A    between atoms: _484  and  _485
REMARK  194  A    between atoms: _484  and  _487
REMARK  195  A    between atoms: _487  and  _488
REMARK  196  A    between atoms: _490  and  _492
REMARK  197  A    between atoms: _492  and  _493
REMARK  198  A    between atoms: _492  and  _495
REMARK  199  A    between atoms: _495  and  _496
REMARK  200  A    between atoms: _499  and  _501
REMARK  201  A    between atoms: _501  and  _502
REMARK  202  A    between atoms: _501  and  _504
REMARK  203  A    between atoms: _504  and  _505
REMARK  204  A    between atoms: _505  and  _506
REMARK  205  A    between atoms: _509  and  _511
REMARK  206  A    between atoms: _511  and  _512
REMARK  207  A    between atoms: _515  and  _517
REMARK  208  A    between atoms: _517  and  _518
REMARK  209  A    between atoms: _517  and  _520
REMARK  210  A    between atoms: _520  and  _521
REMARK  211  A    between atoms: _523  and  _525
REMARK  212  A    between atoms: _525  and  _526
REMARK  213  A    between atoms: _528  and  _530
REMARK  214  A    between atoms: _530  and  _531
REMARK  215  A    between atoms: _530  and  _533
REMARK  216  A    between atoms: _533  and  _534
REMARK  217  A    between atoms: _537  and  _539
REMARK  218  A    between atoms: _539  and  _540
REMARK  219  A    between atoms: _542  and  _544
REMARK  220  A    between atoms: _544  and  _545
REMARK  221  A    between atoms: _544  and  _547
REMARK  222  A    between atoms: _547  and  _548
REMARK  223  A    between atoms: _553  and  _555
REMARK  224  A    between atoms: _555  and  _556
REMARK  225  A    between atoms: _555  and  _558
REMARK  226  A    between atoms: _558  and  _559
REMARK  227  A    between atoms: _559  and  _560
REMARK  228  A    between atoms: _567  and  _568
REMARK  229  A    between atoms: _568  and  _584
REMARK  230  A    between atoms: _569  and  _571
REMARK  231  A    between atoms: _571  and  _572
REMARK  232  A    between atoms: _572  and  _573
REMARK  233  A    between atoms: _577  and  _579
REMARK  234  A    between atoms: _579  and  _580
REMARK  235  A    between atoms: _579  and  _587
REMARK  236  A    between atoms: _580  and  _581
REMARK  237  A    between atoms: _581  and  _582
REMARK  238  A    between atoms: _582  and  _583
REMARK  239  A    between atoms: _583  and  _584
REMARK  240  A    between atoms: _589  and  _591
REMARK  241  A    between atoms: _591  and  _592
REMARK  242  A    between atoms: _591  and  _594
REMARK  243  A    between atoms: _594  and  _595
REMARK  244  A    between atoms: _598  and  _600
REMARK  245  A    between atoms: _600  and  _601
REMARK  246  A    between atoms: _603  and  _605
REMARK  247  A    between atoms: _605  and  _606
REMARK  248  A    between atoms: _609  and  _611
REMARK  249  A    between atoms: _611  and  _612
REMARK  250  A    between atoms: _611  and  _614
REMARK  251  A    between atoms: _614  and  _615
REMARK  252  A    between atoms: _618  and  _620
REMARK  253  A    between atoms: _620  and  _621
REMARK  254  A    between atoms: _620  and  _623
REMARK  255  A    between atoms: _623  and  _624
REMARK  256  A    between atoms: _629  and  _630
REMARK                            x       y       z     vdW  Elec       q    Type
REMARK                         _______ _______ _______ _____ _____    ______ ____
ROOT
ATOM      1  C   GLY A   5      28.548  19.785  34.334  0.00  0.00    +0.243 C 
ATOM      2  O   GLY A   5      28.237  18.845  35.062  0.00  0.00    -0.273 OA
ATOM      3  N   ARG A   6      27.868  20.130  33.245  0.00  0.00    -0.297 N 
ATOM      4  H   ARG A   6      28.199  20.938  32.680  0.00  0.00    +0.150 HD
ENDROOT
BRANCH   3   5
ATOM      5  CA  ARG A   6      26.669  19.410  32.816  0.00  0.00    +0.149 C 
BRANCH   5   6
ATOM      6  C   ARG A   6      27.007  18.038  32.236  0.00  0.00    +0.241 C 
ATOM      7  O   ARG A   6      26.206  17.106  32.357  0.00  0.00    -0.273 OA
ATOM      8  N   LEU A   7      28.196  17.912  31.646  0.00  0.00    -0.297 N 
ATOM      9  H   LEU A   7      28.813  18.746  31.574  0.00  0.00    +0.150 HD
BRANCH   8  10
ATOM     10  CA  LEU A   7      28.662  16.634  31.095  0.00  0.00    +0.149 C 
BRANCH  10  11
ATOM     11  C   LEU A   7      28.854  15.633  32.236  0.00  0.00    +0.241 C 
ATOM     12  N   ALA A   8      29.353  16.139  33.361  0.00  0.00    -0.298 N 
ATOM     13  H   ALA A   8      29.632  17.141  33.380  0.00  0.00    +0.150 HD
ATOM     14  O   LEU A   7      28.523  14.451  32.115  0.00  0.00    -0.273 OA
BRANCH  12  15
ATOM     15  CA  ALA A   8      29.521  15.346  34.557  0.00  0.00    +0.137 C 
ATOM     16  CB  ALA A   8      30.201  16.160  35.654  0.00  0.00    +0.030 C 
BRANCH  15  17
ATOM     17  C   ALA A   8      28.168  14.807  35.014  0.00  0.00    +0.227 C 
ATOM     18  O   ALA A   8      28.055  13.630  35.285  0.00  0.00    -0.286 OA
ENDBRANCH  15  17
ENDBRANCH  12  15
ENDBRANCH  10  11
BRANCH  10  19
ATOM     19  CB  LEU A   7      29.974  16.824  30.355  0.00  0.00    +0.029 C 
BRANCH  19  20
ATOM     20  CG  LEU A   7      30.433  15.597  29.566  0.00  0.00    +0.002 C 
ATOM     21  CD2 LEU A   7      31.944  15.546  29.379  0.00  0.00    +0.000 C 
ATOM     22  CD1 LEU A   7      29.725  15.530  28.201  0.00  0.00    +0.000 C 
ENDBRANCH  19  20
ENDBRANCH  10  19
ENDBRANCH   8  10
ENDBRANCH   5   6
BRANCH   5  23
ATOM     23  CB  ARG A   6      25.829  20.254  31.845  0.00  0.00    +0.033 C 
BRANCH  23  24
ATOM     24  CG  ARG A   6      24.484  19.646  31.436  0.00  0.00    +0.045 C 
BRANCH  24  25
ATOM     25  CD  ARG A   6      23.557  19.297  32.656  0.00  0.00    +0.174 C 
BRANCH  25  26
ATOM     26  NE  ARG A   6      23.064  17.941  32.496  0.00  0.00    -0.265 N 
ATOM     27  CZ  ARG A   6      22.304  17.268  33.350  0.00  0.00    +0.342 C 
ATOM     28  NH2 ARG A   6      21.901  17.816  34.489  0.00  0.00    -0.292 N 
ATOM     29 HH21 ARG A   6      21.305  17.272  35.146  0.00  0.00    +0.255 HD
ATOM     30 HH22 ARG A   6      22.181  18.789  34.725  0.00  0.00    +0.255 HD
ATOM     31  NH1 ARG A   6      21.938  16.017  33.036  0.00  0.00    -0.292 N 
ATOM     32 HH11 ARG A   6      21.342  15.470  33.690  0.00  0.00    +0.255 HD
ATOM     33 HH12 ARG A   6      22.250  15.594  32.139  0.00  0.00    +0.255 HD
ATOM     34  HE  ARG A   6      23.334  17.446  31.622  0.00  0.00    +0.259 HD
ENDBRANCH  25  26
ENDBRANCH  24  25
ENDBRANCH  23  24
ENDBRANCH   5  23
ENDBRANCH   3   5
BRANCH   1  35
ATOM     35  CA  GLY A   5      29.749  20.645  34.645  0.00  0.00    +0.176 C 
BRANCH  35  37
ATOM     36  C   LEU A   4      31.162  20.129  32.753  0.00  0.00    +0.241 C 
ATOM     37  N   GLY A   5      30.480  21.039  33.455  0.00  0.00    -0.295 N 
ATOM     38  H   GLY A   5      30.473  22.032  33.148  0.00  0.00    +0.150 HD
ATOM     39  O   LEU A   4      31.166  18.908  33.048  0.00  0.00    -0.273 OA
BRANCH  36  40
ATOM     40  CA  LEU A   4      31.920  20.653  31.504  0.00  0.00    +0.149 C 
BRANCH  40  42
ATOM     41  C   GLY A   3      29.928  21.323  30.239  0.00  0.00    +0.243 C 
ATOM     42  N   LEU A   4      31.092  21.631  30.789  0.00  0.00    -0.297 N 
ATOM     43  H   LEU A   4      31.435  22.610  30.711  0.00  0.00    +0.150 HD
ATOM     44  O   GLY A   3      29.439  20.199  30.291  0.00  0.00    -0.273 OA
BRANCH  41  45
ATOM     45  CA  GLY A   3      29.231  22.453  29.508  0.00  0.00    +0.176 C 
BRANCH  45  48
ATOM     46  C   GLY A   2      28.527  23.813  31.410  0.00  0.00    +0.243 C 
ATOM     47  O   GLY A   2      28.194  22.835  32.112  0.00  0.00    -0.273 OA
ATOM     48  N   GLY A   3      29.164  23.705  30.247  0.00  0.00    -0.295 N 
ATOM     49  H   GLY A   3      29.631  24.546  29.852  0.00  0.00    +0.150 HD
BRANCH  46  50
ATOM     50  CA  GLY A   2      28.230  25.222  31.869  0.00  0.00    +0.176 C 
BRANCH  50  53
ATOM     51  C   ASN A   1      28.603  26.557  33.860  0.00  0.00    +0.239 C 
ATOM     52  O   ASN A   1      27.855  27.449  33.489  0.00  0.00    -0.274 OA
ATOM     53  N   GLY A   2      28.791  25.437  33.186  0.00  0.00    -0.296 N 
ATOM     54  H   GLY A   2      29.363  24.682  33.617  0.00  0.00    +0.150 HD
BRANCH  51  55
ATOM     55  CA  ASN A   1      29.362  26.694  35.153  0.00  0.00    +0.154 C 
BRANCH  55  56
ATOM     56  N   ASN A   1      29.397  25.480  35.973  0.00  0.00    -0.238 NA
ATOM     57  H   ASN A   1      30.118  24.755  35.781  0.00  0.00    +0.142 HD
ENDBRANCH  55  56
BRANCH  55  58
ATOM     58  CB  ASN A   1      30.766  27.198  34.858  0.00  0.00    +0.111 C 
BRANCH  58  59
ATOM     59  CG  ASN A   1      31.366  27.907  36.032  0.00  0.00    +0.221 C 
ATOM     60  ND2 ASN A   1      32.351  27.277  36.652  0.00  0.00    -0.329 N 
ATOM     61 HD21 ASN A   1      32.797  27.705  37.488  0.00  0.00    +0.145 HD
ATOM     62 HD22 ASN A   1      32.679  26.354  36.303  0.00  0.00    +0.145 HD
ATOM     63  OD1 ASN A   1      30.932  29.010  36.402  0.00  0.00    -0.275 OA
ENDBRANCH  58  59
ENDBRANCH  55  58
ENDBRANCH  51  55
ENDBRANCH  50  53
ENDBRANCH  46  50
ENDBRANCH  45  48
ENDBRANCH  41  45
ENDBRANCH  40  42
BRANCH  40  64
ATOM     64  CB  LEU A   4      33.276  21.312  31.852  0.00  0.00    +0.029 C 
BRANCH  64  65
ATOM     65  CG  LEU A   4      34.312  20.746  32.833  0.00  0.00    +0.002 C 
ATOM     66  CD2 LEU A   4      33.813  20.981  34.221  0.00  0.00    +0.000 C 
ATOM     67  CD1 LEU A   4      35.656  21.441  32.676  0.00  0.00    +0.000 C 
ENDBRANCH  64  65
ENDBRANCH  40  64
ENDBRANCH  36  40
ENDBRANCH  35  37
ENDBRANCH   1  35
TORSDOF 26
REMARK  Name = ../refined-set-2016/3syr/3syr_pocket.pdb
REMARK  256 active torsions:
REMARK  status: ('A' for Active; 'I' for Inactive)
REMARK    1  A    between atoms: _1  and  _3
REMARK    2  A    between atoms: _3  and  _4
REMARK    3  A    between atoms: _3  and  _6
REMARK    4  A    between atoms: _6  and  _7
REMARK    5  A    between atoms: _12  and  _13
REMARK    6  A    between atoms: _15  and  _17
REMARK    7  A    between atoms: _17  and  _18
REMARK    8  A    between atoms: _17  and  _20
REMARK    9  A    between atoms: _20  and  _21
REMARK   10  A    between atoms: _21  and  _22
REMARK   11  A    between atoms: _25  and  _27
REMARK   12  A    between atoms: _27  and  _28
REMARK   13  A    between atoms: _27  and  _30
REMARK   14  A    between atoms: _30  and  _31
REMARK   15  A    between atoms: _36  and  _37
REMARK   16  A    between atoms: _39  and  _41
REMARK   17  A    between atoms: _41  and  _42
REMARK   18  A    between atoms: _41  and  _44
REMARK   19  A    between atoms: _44  and  _45
REMARK   20  A    between atoms: _50  and  _52
REMARK   21  A    between atoms: _52  and  _53
REMARK   22  A    between atoms: _55  and  _57
REMARK   23  A    between atoms: _57  and  _58
REMARK   24  A    between atoms: _60  and  _62
REMARK   25  A    between atoms: _62  and  _63
REMARK   26  A    between atoms: _62  and  _65
REMARK   27  A    between atoms: _65  and  _66
REMARK   28  A    between atoms: _69  and  _71
REMARK   29  A    between atoms: _71  and  _72
REMARK   30  A    between atoms: _74  and  _76
REMARK   31  A    between atoms: _76  and  _77
REMARK   32  A    between atoms: _76  and  _79
REMARK   33  A    between atoms: _79  and  _80
REMARK   34  A    between atoms: _80  and  _81
REMARK   35  A    between atoms: _81  and  _82
REMARK   36  A    between atoms: _91  and  _93
REMARK   37  A    between atoms: _93  and  _94
REMARK   38  A    between atoms: _93  and  _96
REMARK   39  A    between atoms: _96  and  _97
REMARK   40  A    between atoms: _100  and  _102
REMARK   41  A    between atoms: _102  and  _103
REMARK   42  A    between atoms: _106  and  _108
REMARK   43  A    between atoms: _108  and  _109
REMARK   44  A    between atoms: _108  and  _111
REMARK   45  A    between atoms: _111  and  _112
REMARK   46  A    between atoms: _118  and  _120
REMARK   47  A    between atoms: _120  and  _121
REMARK   48  A    between atoms: _120  and  _123
REMARK   49  A    between atoms: _123  and  _124
REMARK   50  A    between atoms: _129  and  _131
REMARK   51  A    between atoms: _131  and  _132
REMARK   52  A    between atoms: _131  and  _134
REMARK   53  A    between atoms: _134  and  _135
REMARK   54  A    between atoms: _138  and  _140
REMARK   55  A    between atoms: _140  and  _141
REMARK   56  A    between atoms: _140  and  _143
REMARK   57  A    between atoms: _143  and  _144
REMARK   58  A    between atoms: _149  and  _151
REMARK   59  A    between atoms: _151  and  _152
REMARK   60  A    between atoms: _151  and  _154
REMARK   61  A    between atoms: _154  and  _155
REMARK   62  A    between atoms: _161  and  _163
REMARK   63  A    between atoms: _163  and  _164
REMARK   64  A    between atoms: _163  and  _166
REMARK   65  A    between atoms: _166  and  _167
REMARK   66  A    between atoms: _173  and  _175
REMARK   67  A    between atoms: _175  and  _176
REMARK   68  A    between atoms: _175  and  _178
REMARK   69  A    between atoms: _178  and  _179
REMARK   70  A    between atoms: _179  and  _180
REMARK   71  A    between atoms: _180  and  _181
REMARK   72  A    between atoms: _190  and  _192
REMARK   73  A    between atoms: _192  and  _193
REMARK   74  A    between atoms: _192  and  _195
REMARK   75  A    between atoms: _195  and  _196
REMARK   76  A    between atoms: _201  and  _203
REMARK   77  A    between atoms: _203  and  _204
REMARK   78  A    between atoms: _203  and  _206
REMARK   79  A    between atoms: _206  and  _207
REMARK   80  A    between atoms: _210  and  _212
REMARK   81  A    between atoms: _212  and  _213
REMARK   82  A    between atoms: _212  and  _215
REMARK   83  A    between atoms: _215  and  _216
REMARK   84  A    between atoms: _219  and  _221
REMARK   85  A    between atoms: _221  and  _222
REMARK   86  A    between atoms: _221  and  _224
REMARK   87  A    between atoms: _224  and  _225
REMARK   88  A    between atoms: _230  and  _232
REMARK   89  A    between atoms: _232  and  _233
REMARK   90  A    between atoms: _232  and  _235
REMARK   91  A    between atoms: _235  and  _236
REMARK   92  A    between atoms: _241  and  _242
REMARK   93  A    between atoms: _244  and  _246
REMARK   94  A    between atoms: _246  and  _247
REMARK   95  A    between atoms: _246  and  _249
REMARK   96  A    between atoms: _249  and  _250
REMARK   97  A    between atoms: _253  and  _255
REMARK   98  A    between atoms: _255  and  _256
REMARK   99  A    between atoms: _255  and  _258
REMARK  100  A    between atoms: _258  and  _259
REMARK  101  A    between atoms: _264  and  _266
REMARK  102  A    between atoms: _266  and  _267
REMARK  103  A    between atoms: _266  and  _269
REMARK  104  A    between atoms: _269  and  _270
REMARK  105  A    between atoms: _275  and  _277
REMARK  106  A    between atoms: _277  and  _278
REMARK  107  A    between atoms: _277  and  _280
REMARK  108  A    between atoms: _280  and  _281
REMARK  109  A    between atoms: _284  and  _286
REMARK  110  A    between atoms: _286  and  _287
REMARK  111  A    between atoms: _286  and  _289
REMARK  112  A    between atoms: _292  and  _294
REMARK  113  A    between atoms: _294  and  _295
REMARK  114  A    between atoms: _294  and  _297
REMARK  115  A    between atoms: _297  and  _298
REMARK  116  A    between atoms: _301  and  _303
REMARK  117  A    between atoms: _303  and  _304
REMARK  118  A    between atoms: _307  and  _309
REMARK  119  A    between atoms: _309  and  _310
REMARK  120  A    between atoms: _309  and  _312
REMARK  121  A    between atoms: _312  and  _313
REMARK  122  A    between atoms: _316  and  _318
REMARK  123  A    between atoms: _318  and  _319
REMARK  124  A    between atoms: _318  and  _321
REMARK  125  A    between atoms: _321  and  _322
REMARK  126  A    between atoms: _322  and  _323
REMARK  127  A    between atoms: _326  and  _328
REMARK  128  A    between atoms: _328  and  _329
REMARK  129  A    between atoms: _328  and  _331
REMARK  130  A    between atoms: _331  and  _332
REMARK  131  A    between atoms: _337  and  _339
REMARK  132  A    between atoms: _339  and  _340
REMARK  133  A    between atoms: _342  and  _344
REMARK  134  A    between atoms: _344  and  _345
REMARK  135  A    between atoms: _344  and  _347
REMARK  136  A    between atoms: _350  and  _352
REMARK  137  A    between atoms: _352  and  _353
REMARK  138  A    between atoms: _356  and  _358
REMARK  139  A    between atoms: _358  and  _359
REMARK  140  A    between atoms: _358  and  _361
REMARK  141  A    between atoms: _361  and  _362
REMARK  142  A    between atoms: _367  and  _369
REMARK  143  A    between atoms: _369  and  _370
REMARK  144  A    between atoms: _369  and  _372
REMARK  145  A    between atoms: _372  and  _373
REMARK  146  A    between atoms: _373  and  _374
REMARK  147  A    between atoms: _374  and  _375
REMARK  148  A    between atoms: _375  and  _376
REMARK  149  A    between atoms: _380  and  _382
REMARK  150  A    between atoms: _382  and  _383
REMARK  151  A    between atoms: _382  and  _385
REMARK  152  A    between atoms: _385  and  _386
REMARK  153  A    between atoms: _389  and  _391
REMARK  154  A    between atoms: _391  and  _392
REMARK  155  A    between atoms: _391  and  _394
REMARK  156  A    between atoms: _394  and  _395
REMARK  157  A    between atoms: _400  and  _402
REMARK  158  A    between atoms: _402  and  _403
REMARK  159  A    between atoms: _405  and  _407
REMARK  160  A    between atoms: _407  and  _408
REMARK  161  A    between atoms: _407  and  _410
REMARK  162  A    between atoms: _410  and  _411
REMARK  163  A    between atoms: _414  and  _416
REMARK  164  A    between atoms: _416  and  _417
REMARK  165  A    between atoms: _416  and  _419
REMARK  166  A    between atoms: _419  and  _420
REMARK  167  A    between atoms: _420  and  _421
REMARK  168  A    between atoms: _421  and  _422
REMARK  169  A    between atoms: _422  and  _423
REMARK  170  A    between atoms: _427  and  _429
REMARK  171  A    between atoms: _429  and  _430
REMARK  172  A    between atoms: _429  and  _432
REMARK  173  A    between atoms: _432  and  _433
REMARK  174  A    between atoms: _433  and  _434
REMARK  175  A    between atoms: _434  and  _435
REMARK  176  A    between atoms: _444  and  _446
REMARK  177  A    between atoms: _446  and  _447
REMARK  178  A    between atoms: _446  and  _449
REMARK  179  A    between atoms: _449  and  _450
REMARK  180  A    between atoms: _455  and  _457
REMARK  181  A    between atoms: _457  and  _458
REMARK  182  A    between atoms: _457  and  _460
REMARK  183  A    between atoms: _460  and  _461
REMARK  184  A    between atoms: _466  and  _467
REMARK  185  A    between atoms: _469  and  _471
REMARK  186  A    between atoms: _471  and  _472
REMARK  187  A    between atoms: _471  and  _474
REMARK  188  A    between atoms: _474  and  _475
REMARK  189  A    between atoms: _475  and  _476
REMARK  190  A    between atoms: _476  and  _477
REMARK  191  A    between atoms: _477  and  _478
REMARK  192  A    between atoms: _482  and  _484
REMARK  193  A    between atoms: _484  and  _485
REMARK  194  A    between atoms: _484  and  _487
REMARK  195  A    between atoms: _487  and  _488
REMARK  196  A    between atoms: _490  and  _492
REMARK  197  A    between atoms: _492  and  _493
REMARK  198  A    between atoms: _492  and  _495
REMARK  199  A    between atoms: _495  and  _496
REMARK  200  A    between atoms: _499  and  _501
REMARK  201  A    between atoms: _501  and  _502
REMARK  202  A    between atoms: _501  and  _504
REMARK  203  A    between atoms: _504  and  _505
REMARK  204  A    between atoms: _505  and  _506
REMARK  205  A    between atoms: _509  and  _511
REMARK  206  A    between atoms: _511  and  _512
REMARK  207  A    between atoms: _515  and  _517
REMARK  208  A    between atoms: _517  and  _518
REMARK  209  A    between atoms: _517  and  _520
REMARK  210  A    between atoms: _520  and  _521
REMARK  211  A    between atoms: _523  and  _525
REMARK  212  A    between atoms: _525  and  _526
REMARK  213  A    between atoms: _528  and  _530
REMARK  214  A    between atoms: _530  and  _531
REMARK  215  A    between atoms: _530  and  _533
REMARK  216  A    between atoms: _533  and  _534
REMARK  217  A    between atoms: _537  and  _539
REMARK  218  A    between atoms: _539  and  _540
REMARK  219  A    between atoms: _542  and  _544
REMARK  220  A    between atoms: _544  and  _545
REMARK  221  A    between atoms: _544  and  _547
REMARK  222  A    between atoms: _547  and  _548
REMARK  223  A    between atoms: _553  and  _555
REMARK  224  A    between atoms: _555  and  _556
REMARK  225  A    between atoms: _555  and  _558
REMARK  226  A    between atoms: _558  and  _559
REMARK  227  A    between atoms: _559  and  _560
REMARK  228  A    between atoms: _567  and  _568
REMARK  229  A    between atoms: _568  and  _584
REMARK  230  A    between atoms: _569  and  _571
REMARK  231  A    between atoms: _571  and  _572
REMARK  232  A    between atoms: _572  and  _573
REMARK  233  A    between atoms: _577  and  _579
REMARK  234  A    between atoms: _579  and  _580
REMARK  235  A    between atoms: _579  and  _587
REMARK  236  A    between atoms: _580  and  _581
REMARK  237  A    between atoms: _581  and  _582
REMARK  238  A    between atoms: _582  and  _583
REMARK  239  A    between atoms: _583  and  _584
REMARK  240  A    between atoms: _589  and  _591
REMARK  241  A    between atoms: _591  and  _592
REMARK  242  A    between atoms: _591  and  _594
REMARK  243  A    between atoms: _594  and  _595
REMARK  244  A    between atoms: _598  and  _600
REMARK  245  A    between atoms: _600  and  _601
REMARK  246  A    between atoms: _603  and  _605
REMARK  247  A    between atoms: _605  and  _606
REMARK  248  A    between atoms: _609  and  _611
REMARK  249  A    between atoms: _611  and  _612
REMARK  250  A    between atoms: _611  and  _614
REMARK  251  A    between atoms: _614  and  _615
REMARK  252  A    between atoms: _618  and  _620
REMARK  253  A    between atoms: _620  and  _621
REMARK  254  A    between atoms: _620  and  _623
REMARK  255  A    between atoms: _623  and  _624
REMARK  256  A    between atoms: _629  and  _630
REMARK                            x       y       z     vdW  Elec       q    Type
REMARK                         _______ _______ _______ _____ _____    ______ ____
ROOT
ATOM      1  CB  PHE A   1      29.081  11.418  32.935  0.00  0.00    +0.051 C 
ENDROOT
BRANCH   1   2
ATOM      2  CG  PHE A   1      29.773  11.612  31.629  0.00  0.00    -0.020 A 
ATOM      3  CD2 PHE A   1      31.153  11.768  31.575  0.00  0.00    -0.004 A 
ATOM      4  CE2 PHE A   1      31.801  11.944  30.337  0.00  0.00    -0.000 A 
ATOM      5  CZ  PHE A   1      31.060  11.975  29.160  0.00  0.00    -0.000 A 
ATOM      6  CE1 PHE A   1      29.671  11.856  29.213  0.00  0.00    -0.000 A 
ATOM      7  CD1 PHE A   1      29.040  11.672  30.442  0.00  0.00    -0.004 A 
ENDBRANCH   1   2
BRANCH   1   8
ATOM      8  CA  PHE A   1      27.607  11.044  32.785  0.00  0.00    +0.137 C 
BRANCH   8   9
ATOM      9  N   PHE A   1      26.800  12.236  32.595  0.00  0.00    -0.239 NA
ATOM     10  H   PHE A   1      27.241  13.174  32.681  0.00  0.00    +0.142 HD
ENDBRANCH   8   9
BRANCH   8  11
ATOM     11  C   PHE A   1      27.118  10.182  33.946  0.00  0.00    +0.224 C 
ATOM     12  O   PHE A   1      26.993   8.963  33.789  0.00  0.00    -0.287 OA
ENDBRANCH   8  11
ENDBRANCH   1   8
TORSDOF 4
REMARK  Name = ../refined-set-2016/3syr/3syr_pocket.pdb
REMARK  256 active torsions:
REMARK  status: ('A' for Active; 'I' for Inactive)
REMARK    1  A    between atoms: _1  and  _3
REMARK    2  A    between atoms: _3  and  _4
REMARK    3  A    between atoms: _3  and  _6
REMARK    4  A    between atoms: _6  and  _7
REMARK    5  A    between atoms: _12  and  _13
REMARK    6  A    between atoms: _15  and  _17
REMARK    7  A    between atoms: _17  and  _18
REMARK    8  A    between atoms: _17  and  _20
REMARK    9  A    between atoms: _20  and  _21
REMARK   10  A    between atoms: _21  and  _22
REMARK   11  A    between atoms: _25  and  _27
REMARK   12  A    between atoms: _27  and  _28
REMARK   13  A    between atoms: _27  and  _30
REMARK   14  A    between atoms: _30  and  _31
REMARK   15  A    between atoms: _36  and  _37
REMARK   16  A    between atoms: _39  and  _41
REMARK   17  A    between atoms: _41  and  _42
REMARK   18  A    between atoms: _41  and  _44
REMARK   19  A    between atoms: _44  and  _45
REMARK   20  A    between atoms: _50  and  _52
REMARK   21  A    between atoms: _52  and  _53
REMARK   22  A    between atoms: _55  and  _57
REMARK   23  A    between atoms: _57  and  _58
REMARK   24  A    between atoms: _60  and  _62
REMARK   25  A    between atoms: _62  and  _63
REMARK   26  A    between atoms: _62  and  _65
REMARK   27  A    between atoms: _65  and  _66
REMARK   28  A    between atoms: _69  and  _71
REMARK   29  A    between atoms: _71  and  _72
REMARK   30  A    between atoms: _74  and  _76
REMARK   31  A    between atoms: _76  and  _77
REMARK   32  A    between atoms: _76  and  _79
REMARK   33  A    between atoms: _79  and  _80
REMARK   34  A    between atoms: _80  and  _81
REMARK   35  A    between atoms: _81  and  _82
REMARK   36  A    between atoms: _91  and  _93
REMARK   37  A    between atoms: _93  and  _94
REMARK   38  A    between atoms: _93  and  _96
REMARK   39  A    between atoms: _96  and  _97
REMARK   40  A    between atoms: _100  and  _102
REMARK   41  A    between atoms: _102  and  _103
REMARK   42  A    between atoms: _106  and  _108
REMARK   43  A    between atoms: _108  and  _109
REMARK   44  A    between atoms: _108  and  _111
REMARK   45  A    between atoms: _111  and  _112
REMARK   46  A    between atoms: _118  and  _120
REMARK   47  A    between atoms: _120  and  _121
REMARK   48  A    between atoms: _120  and  _123
REMARK   49  A    between atoms: _123  and  _124
REMARK   50  A    between atoms: _129  and  _131
REMARK   51  A    between atoms: _131  and  _132
REMARK   52  A    between atoms: _131  and  _134
REMARK   53  A    between atoms: _134  and  _135
REMARK   54  A    between atoms: _138  and  _140
REMARK   55  A    between atoms: _140  and  _141
REMARK   56  A    between atoms: _140  and  _143
REMARK   57  A    between atoms: _143  and  _144
REMARK   58  A    between atoms: _149  and  _151
REMARK   59  A    between atoms: _151  and  _152
REMARK   60  A    between atoms: _151  and  _154
REMARK   61  A    between atoms: _154  and  _155
REMARK   62  A    between atoms: _161  and  _163
REMARK   63  A    between atoms: _163  and  _164
REMARK   64  A    between atoms: _163  and  _166
REMARK   65  A    between atoms: _166  and  _167
REMARK   66  A    between atoms: _173  and  _175
REMARK   67  A    between atoms: _175  and  _176
REMARK   68  A    between atoms: _175  and  _178
REMARK   69  A    between atoms: _178  and  _179
REMARK   70  A    between atoms: _179  and  _180
REMARK   71  A    between atoms: _180  and  _181
REMARK   72  A    between atoms: _190  and  _192
REMARK   73  A    between atoms: _192  and  _193
REMARK   74  A    between atoms: _192  and  _195
REMARK   75  A    between atoms: _195  and  _196
REMARK   76  A    between atoms: _201  and  _203
REMARK   77  A    between atoms: _203  and  _204
REMARK   78  A    between atoms: _203  and  _206
REMARK   79  A    between atoms: _206  and  _207
REMARK   80  A    between atoms: _210  and  _212
REMARK   81  A    between atoms: _212  and  _213
REMARK   82  A    between atoms: _212  and  _215
REMARK   83  A    between atoms: _215  and  _216
REMARK   84  A    between atoms: _219  and  _221
REMARK   85  A    between atoms: _221  and  _222
REMARK   86  A    between atoms: _221  and  _224
REMARK   87  A    between atoms: _224  and  _225
REMARK   88  A    between atoms: _230  and  _232
REMARK   89  A    between atoms: _232  and  _233
REMARK   90  A    between atoms: _232  and  _235
REMARK   91  A    between atoms: _235  and  _236
REMARK   92  A    between atoms: _241  and  _242
REMARK   93  A    between atoms: _244  and  _246
REMARK   94  A    between atoms: _246  and  _247
REMARK   95  A    between atoms: _246  and  _249
REMARK   96  A    between atoms: _249  and  _250
REMARK   97  A    between atoms: _253  and  _255
REMARK   98  A    between atoms: _255  and  _256
REMARK   99  A    between atoms: _255  and  _258
REMARK  100  A    between atoms: _258  and  _259
REMARK  101  A    between atoms: _264  and  _266
REMARK  102  A    between atoms: _266  and  _267
REMARK  103  A    between atoms: _266  and  _269
REMARK  104  A    between atoms: _269  and  _270
REMARK  105  A    between atoms: _275  and  _277
REMARK  106  A    between atoms: _277  and  _278
REMARK  107  A    between atoms: _277  and  _280
REMARK  108  A    between atoms: _280  and  _281
REMARK  109  A    between atoms: _284  and  _286
REMARK  110  A    between atoms: _286  and  _287
REMARK  111  A    between atoms: _286  and  _289
REMARK  112  A    between atoms: _292  and  _294
REMARK  113  A    between atoms: _294  and  _295
REMARK  114  A    between atoms: _294  and  _297
REMARK  115  A    between atoms: _297  and  _298
REMARK  116  A    between atoms: _301  and  _303
REMARK  117  A    between atoms: _303  and  _304
REMARK  118  A    between atoms: _307  and  _309
REMARK  119  A    between atoms: _309  and  _310
REMARK  120  A    between atoms: _309  and  _312
REMARK  121  A    between atoms: _312  and  _313
REMARK  122  A    between atoms: _316  and  _318
REMARK  123  A    between atoms: _318  and  _319
REMARK  124  A    between atoms: _318  and  _321
REMARK  125  A    between atoms: _321  and  _322
REMARK  126  A    between atoms: _322  and  _323
REMARK  127  A    between atoms: _326  and  _328
REMARK  128  A    between atoms: _328  and  _329
REMARK  129  A    between atoms: _328  and  _331
REMARK  130  A    between atoms: _331  and  _332
REMARK  131  A    between atoms: _337  and  _339
REMARK  132  A    between atoms: _339  and  _340
REMARK  133  A    between atoms: _342  and  _344
REMARK  134  A    between atoms: _344  and  _345
REMARK  135  A    between atoms: _344  and  _347
REMARK  136  A    between atoms: _350  and  _352
REMARK  137  A    between atoms: _352  and  _353
REMARK  138  A    between atoms: _356  and  _358
REMARK  139  A    between atoms: _358  and  _359
REMARK  140  A    between atoms: _358  and  _361
REMARK  141  A    between atoms: _361  and  _362
REMARK  142  A    between atoms: _367  and  _369
REMARK  143  A    between atoms: _369  and  _370
REMARK  144  A    between atoms: _369  and  _372
REMARK  145  A    between atoms: _372  and  _373
REMARK  146  A    between atoms: _373  and  _374
REMARK  147  A    between atoms: _374  and  _375
REMARK  148  A    between atoms: _375  and  _376
REMARK  149  A    between atoms: _380  and  _382
REMARK  150  A    between atoms: _382  and  _383
REMARK  151  A    between atoms: _382  and  _385
REMARK  152  A    between atoms: _385  and  _386
REMARK  153  A    between atoms: _389  and  _391
REMARK  154  A    between atoms: _391  and  _392
REMARK  155  A    between atoms: _391  and  _394
REMARK  156  A    between atoms: _394  and  _395
REMARK  157  A    between atoms: _400  and  _402
REMARK  158  A    between atoms: _402  and  _403
REMARK  159  A    between atoms: _405  and  _407
REMARK  160  A    between atoms: _407  and  _408
REMARK  161  A    between atoms: _407  and  _410
REMARK  162  A    between atoms: _410  and  _411
REMARK  163  A    between atoms: _414  and  _416
REMARK  164  A    between atoms: _416  and  _417
REMARK  165  A    between atoms: _416  and  _419
REMARK  166  A    between atoms: _419  and  _420
REMARK  167  A    between atoms: _420  and  _421
REMARK  168  A    between atoms: _421  and  _422
REMARK  169  A    between atoms: _422  and  _423
REMARK  170  A    between atoms: _427  and  _429
REMARK  171  A    between atoms: _429  and  _430
REMARK  172  A    between atoms: _429  and  _432
REMARK  173  A    between atoms: _432  and  _433
REMARK  174  A    between atoms: _433  and  _434
REMARK  175  A    between atoms: _434  and  _435
REMARK  176  A    between atoms: _444  and  _446
REMARK  177  A    between atoms: _446  and  _447
REMARK  178  A    between atoms: _446  and  _449
REMARK  179  A    between atoms: _449  and  _450
REMARK  180  A    between atoms: _455  and  _457
REMARK  181  A    between atoms: _457  and  _458
REMARK  182  A    between atoms: _457  and  _460
REMARK  183  A    between atoms: _460  and  _461
REMARK  184  A    between atoms: _466  and  _467
REMARK  185  A    between atoms: _469  and  _471
REMARK  186  A    between atoms: _471  and  _472
REMARK  187  A    between atoms: _471  and  _474
REMARK  188  A    between atoms: _474  and  _475
REMARK  189  A    between atoms: _475  and  _476
REMARK  190  A    between atoms: _476  and  _477
REMARK  191  A    between atoms: _477  and  _478
REMARK  192  A    between atoms: _482  and  _484
REMARK  193  A    between atoms: _484  and  _485
REMARK  194  A    between atoms: _484  and  _487
REMARK  195  A    between atoms: _487  and  _488
REMARK  196  A    between atoms: _490  and  _492
REMARK  197  A    between atoms: _492  and  _493
REMARK  198  A    between atoms: _492  and  _495
REMARK  199  A    between atoms: _495  and  _496
REMARK  200  A    between atoms: _499  and  _501
REMARK  201  A    between atoms: _501  and  _502
REMARK  202  A    between atoms: _501  and  _504
REMARK  203  A    between atoms: _504  and  _505
REMARK  204  A    between atoms: _505  and  _506
REMARK  205  A    between atoms: _509  and  _511
REMARK  206  A    between atoms: _511  and  _512
REMARK  207  A    between atoms: _515  and  _517
REMARK  208  A    between atoms: _517  and  _518
REMARK  209  A    between atoms: _517  and  _520
REMARK  210  A    between atoms: _520  and  _521
REMARK  211  A    between atoms: _523  and  _525
REMARK  212  A    between atoms: _525  and  _526
REMARK  213  A    between atoms: _528  and  _530
REMARK  214  A    between atoms: _530  and  _531
REMARK  215  A    between atoms: _530  and  _533
REMARK  216  A    between atoms: _533  and  _534
REMARK  217  A    between atoms: _537  and  _539
REMARK  218  A    between atoms: _539  and  _540
REMARK  219  A    between atoms: _542  and  _544
REMARK  220  A    between atoms: _544  and  _545
REMARK  221  A    between atoms: _544  and  _547
REMARK  222  A    between atoms: _547  and  _548
REMARK  223  A    between atoms: _553  and  _555
REMARK  224  A    between atoms: _555  and  _556
REMARK  225  A    between atoms: _555  and  _558
REMARK  226  A    between atoms: _558  and  _559
REMARK  227  A    between atoms: _559  and  _560
REMARK  228  A    between atoms: _567  and  _568
REMARK  229  A    between atoms: _568  and  _584
REMARK  230  A    between atoms: _569  and  _571
REMARK  231  A    between atoms: _571  and  _572
REMARK  232  A    between atoms: _572  and  _573
REMARK  233  A    between atoms: _577  and  _579
REMARK  234  A    between atoms: _579  and  _580
REMARK  235  A    between atoms: _579  and  _587
REMARK  236  A    between atoms: _580  and  _581
REMARK  237  A    between atoms: _581  and  _582
REMARK  238  A    between atoms: _582  and  _583
REMARK  239  A    between atoms: _583  and  _584
REMARK  240  A    between atoms: _589  and  _591
REMARK  241  A    between atoms: _591  and  _592
REMARK  242  A    between atoms: _591  and  _594
REMARK  243  A    between atoms: _594  and  _595
REMARK  244  A    between atoms: _598  and  _600
REMARK  245  A    between atoms: _600  and  _601
REMARK  246  A    between atoms: _603  and  _605
REMARK  247  A    between atoms: _605  and  _606
REMARK  248  A    between atoms: _609  and  _611
REMARK  249  A    between atoms: _611  and  _612
REMARK  250  A    between atoms: _611  and  _614
REMARK  251  A    between atoms: _614  and  _615
REMARK  252  A    between atoms: _618  and  _620
REMARK  253  A    between atoms: _620  and  _621
REMARK  254  A    between atoms: _620  and  _623
REMARK  255  A    between atoms: _623  and  _624
REMARK  256  A    between atoms: _629  and  _630
REMARK                            x       y       z     vdW  Elec       q    Type
REMARK                         _______ _______ _______ _____ _____    ______ ____
ROOT
ATOM      1  CA  ASN A   3      37.087  28.643  29.767  0.00  0.00    +0.158 C 
ENDROOT
BRANCH   1   2
ATOM      2  C   ASN A   3      38.018  29.842  30.013  0.00  0.00    +0.241 C 
ATOM      3  N   PHE A   4      38.486  29.963  31.254  0.00  0.00    -0.297 N 
ATOM      4  H   PHE A   4      38.164  29.278  31.967  0.00  0.00    +0.150 HD
ATOM      5  O   ASN A   3      38.271  30.642  29.107  0.00  0.00    -0.273 OA
BRANCH   3   6
ATOM      6  CA  PHE A   4      39.422  30.998  31.672  0.00  0.00    +0.153 C 
BRANCH   6   7
ATOM      7  C   PHE A   4      40.080  30.588  32.983  0.00  0.00    +0.241 C 
ATOM      8  O   PHE A   4      39.401  30.261  33.954  0.00  0.00    -0.273 OA
ATOM      9  N   PHE A   5      41.404  30.585  33.009  0.00  0.00    -0.298 N 
ATOM     10  H   PHE A   5      41.947  30.870  32.169  0.00  0.00    +0.150 HD
BRANCH   9  11
ATOM     11  CA  PHE A   5      42.083  30.183  34.212  0.00  0.00    +0.141 C 
BRANCH  11  12
ATOM     12  C   PHE A   5      42.355  31.378  35.115  0.00  0.00    +0.227 C 
ATOM     13  O   PHE A   5      42.774  32.429  34.661  0.00  0.00    -0.286 OA
ENDBRANCH  11  12
BRANCH  11  14
ATOM     14  CB  PHE A   5      43.368  29.436  33.893  0.00  0.00    +0.054 C 
BRANCH  14  15
ATOM     15  CG  PHE A   5      44.198  29.108  35.103  0.00  0.00    -0.020 A 
ATOM     16  CD2 PHE A   5      43.703  28.276  36.096  0.00  0.00    -0.004 A 
ATOM     17  CE2 PHE A   5      44.478  27.964  37.217  0.00  0.00    -0.000 A 
ATOM     18  CZ  PHE A   5      45.761  28.473  37.334  0.00  0.00    -0.000 A 
ATOM     19  CE1 PHE A   5      46.282  29.302  36.327  0.00  0.00    -0.000 A 
ATOM     20  CD1 PHE A   5      45.497  29.617  35.234  0.00  0.00    -0.004 A 
ENDBRANCH  14  15
ENDBRANCH  11  14
ENDBRANCH   9  11
ENDBRANCH   6   7
BRANCH   6  21
ATOM     21  CB  PHE A   4      38.747  32.369  31.827  0.00  0.00    +0.055 C 
BRANCH  21  22
ATOM     22  CG  PHE A   4      39.731  33.509  31.946  0.00  0.00    -0.020 A 
ATOM     23  CD2 PHE A   4      40.037  34.061  33.197  0.00  0.00    -0.004 A 
ATOM     24  CE2 PHE A   4      40.977  35.105  33.328  0.00  0.00    -0.000 A 
ATOM     25  CZ  PHE A   4      41.611  35.610  32.196  0.00  0.00    -0.000 A 
ATOM     26  CE1 PHE A   4      41.306  35.069  30.932  0.00  0.00    -0.000 A 
ATOM     27  CD1 PHE A   4      40.368  34.016  30.820  0.00  0.00    -0.004 A 
ENDBRANCH  21  22
ENDBRANCH   6  21
ENDBRANCH   3   6
ENDBRANCH   1   2
BRANCH   1  29
ATOM     28  C   ASP A   2      35.327  29.427  31.264  0.00  0.00    +0.241 C 
ATOM     29  N   ASN A   3      36.123  28.434  30.852  0.00  0.00    -0.297 N 
ATOM     30  H   ASN A   3      36.057  27.501  31.307  0.00  0.00    +0.150 HD
ATOM     31  O   ASP A   2      35.375  30.570  30.790  0.00  0.00    -0.273 OA
BRANCH  28  32
ATOM     32  CA  ASP A   2      34.334  29.114  32.357  0.00  0.00    +0.160 C 
BRANCH  32  35
ATOM     33  C   ASN A   1      34.847  30.071  34.507  0.00  0.00    +0.239 C 
ATOM     34  O   ASN A   1      35.065  28.978  35.015  0.00  0.00    -0.274 OA
ATOM     35  N   ASP A   2      34.430  30.228  33.262  0.00  0.00    -0.297 N 
ATOM     36  H   ASP A   2      34.166  31.177  32.930  0.00  0.00    +0.150 HD
BRANCH  33  37
ATOM     37  CA  ASN A   1      35.085  31.332  35.291  0.00  0.00    +0.154 C 
BRANCH  37  38
ATOM     38  N   ASN A   1      34.452  31.292  36.626  0.00  0.00    -0.238 NA
ATOM     39  H   ASN A   1      35.022  31.075  37.469  0.00  0.00    +0.142 HD
ENDBRANCH  37  38
BRANCH  37  40
ATOM     40  CB  ASN A   1      36.606  31.568  35.301  0.00  0.00    +0.111 C 
BRANCH  40  41
ATOM     41  CG  ASN A   1      37.206  31.497  36.669  0.00  0.00    +0.221 C 
ATOM     42  OD1 ASN A   1      36.942  32.381  37.484  0.00  0.00    -0.275 OA
ATOM     43  ND2 ASN A   1      38.069  30.475  36.930  0.00  0.00    -0.329 N 
ATOM     44 HD21 ASN A   1      38.541  30.416  37.855  0.00  0.00    +0.145 HD
ATOM     45 HD22 ASN A   1      38.256  29.754  36.204  0.00  0.00    +0.145 HD
ENDBRANCH  40  41
ENDBRANCH  37  40
ENDBRANCH  33  37
ENDBRANCH  32  35
BRANCH  32  46
ATOM     46  CB  ASP A   2      32.917  29.049  31.775  0.00  0.00    +0.143 C 
BRANCH  46  47
ATOM     47  CG  ASP A   2      32.467  27.615  31.446  0.00  0.00    +0.367 C 
ATOM     48  OD2 ASP A   2      32.895  26.638  32.131  0.00  0.00    -0.246 OA
ATOM     49  OD1 ASP A   2      31.655  27.470  30.504  0.00  0.00    -0.246 OA
ENDBRANCH  46  47
ENDBRANCH  32  46
ENDBRANCH  28  32
ENDBRANCH   1  29
BRANCH   1  50
ATOM     50  CB  ASN A   3      36.350  28.817  28.435  0.00  0.00    +0.114 C 
BRANCH  50  51
ATOM     51  CG  ASN A   3      36.021  27.503  27.777  0.00  0.00    +0.222 C 
ATOM     52  ND2 ASN A   3      34.733  27.164  27.745  0.00  0.00    -0.329 N 
ATOM     53 HD21 ASN A   3      34.018  27.798  28.156  0.00  0.00    +0.145 HD
ATOM     54 HD22 ASN A   3      34.442  26.266  27.309  0.00  0.00    +0.145 HD
ATOM     55  OD1 ASN A   3      36.906  26.795  27.308  0.00  0.00    -0.275 OA
ENDBRANCH  50  51
ENDBRANCH   1  50
TORSDOF 20
REMARK  Name = ../refined-set-2016/3syr/3syr_pocket.pdb
REMARK  256 active torsions:
REMARK  status: ('A' for Active; 'I' for Inactive)
REMARK    1  A    between atoms: _1  and  _3
REMARK    2  A    between atoms: _3  and  _4
REMARK    3  A    between atoms: _3  and  _6
REMARK    4  A    between atoms: _6  and  _7
REMARK    5  A    between atoms: _12  and  _13
REMARK    6  A    between atoms: _15  and  _17
REMARK    7  A    between atoms: _17  and  _18
REMARK    8  A    between atoms: _17  and  _20
REMARK    9  A    between atoms: _20  and  _21
REMARK   10  A    between atoms: _21  and  _22
REMARK   11  A    between atoms: _25  and  _27
REMARK   12  A    between atoms: _27  and  _28
REMARK   13  A    between atoms: _27  and  _30
REMARK   14  A    between atoms: _30  and  _31
REMARK   15  A    between atoms: _36  and  _37
REMARK   16  A    between atoms: _39  and  _41
REMARK   17  A    between atoms: _41  and  _42
REMARK   18  A    between atoms: _41  and  _44
REMARK   19  A    between atoms: _44  and  _45
REMARK   20  A    between atoms: _50  and  _52
REMARK   21  A    between atoms: _52  and  _53
REMARK   22  A    between atoms: _55  and  _57
REMARK   23  A    between atoms: _57  and  _58
REMARK   24  A    between atoms: _60  and  _62
REMARK   25  A    between atoms: _62  and  _63
REMARK   26  A    between atoms: _62  and  _65
REMARK   27  A    between atoms: _65  and  _66
REMARK   28  A    between atoms: _69  and  _71
REMARK   29  A    between atoms: _71  and  _72
REMARK   30  A    between atoms: _74  and  _76
REMARK   31  A    between atoms: _76  and  _77
REMARK   32  A    between atoms: _76  and  _79
REMARK   33  A    between atoms: _79  and  _80
REMARK   34  A    between atoms: _80  and  _81
REMARK   35  A    between atoms: _81  and  _82
REMARK   36  A    between atoms: _91  and  _93
REMARK   37  A    between atoms: _93  and  _94
REMARK   38  A    between atoms: _93  and  _96
REMARK   39  A    between atoms: _96  and  _97
REMARK   40  A    between atoms: _100  and  _102
REMARK   41  A    between atoms: _102  and  _103
REMARK   42  A    between atoms: _106  and  _108
REMARK   43  A    between atoms: _108  and  _109
REMARK   44  A    between atoms: _108  and  _111
REMARK   45  A    between atoms: _111  and  _112
REMARK   46  A    between atoms: _118  and  _120
REMARK   47  A    between atoms: _120  and  _121
REMARK   48  A    between atoms: _120  and  _123
REMARK   49  A    between atoms: _123  and  _124
REMARK   50  A    between atoms: _129  and  _131
REMARK   51  A    between atoms: _131  and  _132
REMARK   52  A    between atoms: _131  and  _134
REMARK   53  A    between atoms: _134  and  _135
REMARK   54  A    between atoms: _138  and  _140
REMARK   55  A    between atoms: _140  and  _141
REMARK   56  A    between atoms: _140  and  _143
REMARK   57  A    between atoms: _143  and  _144
REMARK   58  A    between atoms: _149  and  _151
REMARK   59  A    between atoms: _151  and  _152
REMARK   60  A    between atoms: _151  and  _154
REMARK   61  A    between atoms: _154  and  _155
REMARK   62  A    between atoms: _161  and  _163
REMARK   63  A    between atoms: _163  and  _164
REMARK   64  A    between atoms: _163  and  _166
REMARK   65  A    between atoms: _166  and  _167
REMARK   66  A    between atoms: _173  and  _175
REMARK   67  A    between atoms: _175  and  _176
REMARK   68  A    between atoms: _175  and  _178
REMARK   69  A    between atoms: _178  and  _179
REMARK   70  A    between atoms: _179  and  _180
REMARK   71  A    between atoms: _180  and  _181
REMARK   72  A    between atoms: _190  and  _192
REMARK   73  A    between atoms: _192  and  _193
REMARK   74  A    between atoms: _192  and  _195
REMARK   75  A    between atoms: _195  and  _196
REMARK   76  A    between atoms: _201  and  _203
REMARK   77  A    between atoms: _203  and  _204
REMARK   78  A    between atoms: _203  and  _206
REMARK   79  A    between atoms: _206  and  _207
REMARK   80  A    between atoms: _210  and  _212
REMARK   81  A    between atoms: _212  and  _213
REMARK   82  A    between atoms: _212  and  _215
REMARK   83  A    between atoms: _215  and  _216
REMARK   84  A    between atoms: _219  and  _221
REMARK   85  A    between atoms: _221  and  _222
REMARK   86  A    between atoms: _221  and  _224
REMARK   87  A    between atoms: _224  and  _225
REMARK   88  A    between atoms: _230  and  _232
REMARK   89  A    between atoms: _232  and  _233
REMARK   90  A    between atoms: _232  and  _235
REMARK   91  A    between atoms: _235  and  _236
REMARK   92  A    between atoms: _241  and  _242
REMARK   93  A    between atoms: _244  and  _246
REMARK   94  A    between atoms: _246  and  _247
REMARK   95  A    between atoms: _246  and  _249
REMARK   96  A    between atoms: _249  and  _250
REMARK   97  A    between atoms: _253  and  _255
REMARK   98  A    between atoms: _255  and  _256
REMARK   99  A    between atoms: _255  and  _258
REMARK  100  A    between atoms: _258  and  _259
REMARK  101  A    between atoms: _264  and  _266
REMARK  102  A    between atoms: _266  and  _267
REMARK  103  A    between atoms: _266  and  _269
REMARK  104  A    between atoms: _269  and  _270
REMARK  105  A    between atoms: _275  and  _277
REMARK  106  A    between atoms: _277  and  _278
REMARK  107  A    between atoms: _277  and  _280
REMARK  108  A    between atoms: _280  and  _281
REMARK  109  A    between atoms: _284  and  _286
REMARK  110  A    between atoms: _286  and  _287
REMARK  111  A    between atoms: _286  and  _289
REMARK  112  A    between atoms: _292  and  _294
REMARK  113  A    between atoms: _294  and  _295
REMARK  114  A    between atoms: _294  and  _297
REMARK  115  A    between atoms: _297  and  _298
REMARK  116  A    between atoms: _301  and  _303
REMARK  117  A    between atoms: _303  and  _304
REMARK  118  A    between atoms: _307  and  _309
REMARK  119  A    between atoms: _309  and  _310
REMARK  120  A    between atoms: _309  and  _312
REMARK  121  A    between atoms: _312  and  _313
REMARK  122  A    between atoms: _316  and  _318
REMARK  123  A    between atoms: _318  and  _319
REMARK  124  A    between atoms: _318  and  _321
REMARK  125  A    between atoms: _321  and  _322
REMARK  126  A    between atoms: _322  and  _323
REMARK  127  A    between atoms: _326  and  _328
REMARK  128  A    between atoms: _328  and  _329
REMARK  129  A    between atoms: _328  and  _331
REMARK  130  A    between atoms: _331  and  _332
REMARK  131  A    between atoms: _337  and  _339
REMARK  132  A    between atoms: _339  and  _340
REMARK  133  A    between atoms: _342  and  _344
REMARK  134  A    between atoms: _344  and  _345
REMARK  135  A    between atoms: _344  and  _347
REMARK  136  A    between atoms: _350  and  _352
REMARK  137  A    between atoms: _352  and  _353
REMARK  138  A    between atoms: _356  and  _358
REMARK  139  A    between atoms: _358  and  _359
REMARK  140  A    between atoms: _358  and  _361
REMARK  141  A    between atoms: _361  and  _362
REMARK  142  A    between atoms: _367  and  _369
REMARK  143  A    between atoms: _369  and  _370
REMARK  144  A    between atoms: _369  and  _372
REMARK  145  A    between atoms: _372  and  _373
REMARK  146  A    between atoms: _373  and  _374
REMARK  147  A    between atoms: _374  and  _375
REMARK  148  A    between atoms: _375  and  _376
REMARK  149  A    between atoms: _380  and  _382
REMARK  150  A    between atoms: _382  and  _383
REMARK  151  A    between atoms: _382  and  _385
REMARK  152  A    between atoms: _385  and  _386
REMARK  153  A    between atoms: _389  and  _391
REMARK  154  A    between atoms: _391  and  _392
REMARK  155  A    between atoms: _391  and  _394
REMARK  156  A    between atoms: _394  and  _395
REMARK  157  A    between atoms: _400  and  _402
REMARK  158  A    between atoms: _402  and  _403
REMARK  159  A    between atoms: _405  and  _407
REMARK  160  A    between atoms: _407  and  _408
REMARK  161  A    between atoms: _407  and  _410
REMARK  162  A    between atoms: _410  and  _411
REMARK  163  A    between atoms: _414  and  _416
REMARK  164  A    between atoms: _416  and  _417
REMARK  165  A    between atoms: _416  and  _419
REMARK  166  A    between atoms: _419  and  _420
REMARK  167  A    between atoms: _420  and  _421
REMARK  168  A    between atoms: _421  and  _422
REMARK  169  A    between atoms: _422  and  _423
REMARK  170  A    between atoms: _427  and  _429
REMARK  171  A    between atoms: _429  and  _430
REMARK  172  A    between atoms: _429  and  _432
REMARK  173  A    between atoms: _432  and  _433
REMARK  174  A    between atoms: _433  and  _434
REMARK  175  A    between atoms: _434  and  _435
REMARK  176  A    between atoms: _444  and  _446
REMARK  177  A    between atoms: _446  and  _447
REMARK  178  A    between atoms: _446  and  _449
REMARK  179  A    between atoms: _449  and  _450
REMARK  180  A    between atoms: _455  and  _457
REMARK  181  A    between atoms: _457  and  _458
REMARK  182  A    between atoms: _457  and  _460
REMARK  183  A    between atoms: _460  and  _461
REMARK  184  A    between atoms: _466  and  _467
REMARK  185  A    between atoms: _469  and  _471
REMARK  186  A    between atoms: _471  and  _472
REMARK  187  A    between atoms: _471  and  _474
REMARK  188  A    between atoms: _474  and  _475
REMARK  189  A    between atoms: _475  and  _476
REMARK  190  A    between atoms: _476  and  _477
REMARK  191  A    between atoms: _477  and  _478
REMARK  192  A    between atoms: _482  and  _484
REMARK  193  A    between atoms: _484  and  _485
REMARK  194  A    between atoms: _484  and  _487
REMARK  195  A    between atoms: _487  and  _488
REMARK  196  A    between atoms: _490  and  _492
REMARK  197  A    between atoms: _492  and  _493
REMARK  198  A    between atoms: _492  and  _495
REMARK  199  A    between atoms: _495  and  _496
REMARK  200  A    between atoms: _499  and  _501
REMARK  201  A    between atoms: _501  and  _502
REMARK  202  A    between atoms: _501  and  _504
REMARK  203  A    between atoms: _504  and  _505
REMARK  204  A    between atoms: _505  and  _506
REMARK  205  A    between atoms: _509  and  _511
REMARK  206  A    between atoms: _511  and  _512
REMARK  207  A    between atoms: _515  and  _517
REMARK  208  A    between atoms: _517  and  _518
REMARK  209  A    between atoms: _517  and  _520
REMARK  210  A    between atoms: _520  and  _521
REMARK  211  A    between atoms: _523  and  _525
REMARK  212  A    between atoms: _525  and  _526
REMARK  213  A    between atoms: _528  and  _530
REMARK  214  A    between atoms: _530  and  _531
REMARK  215  A    between atoms: _530  and  _533
REMARK  216  A    between atoms: _533  and  _534
REMARK  217  A    between atoms: _537  and  _539
REMARK  218  A    between atoms: _539  and  _540
REMARK  219  A    between atoms: _542  and  _544
REMARK  220  A    between atoms: _544  and  _545
REMARK  221  A    between atoms: _544  and  _547
REMARK  222  A    between atoms: _547  and  _548
REMARK  223  A    between atoms: _553  and  _555
REMARK  224  A    between atoms: _555  and  _556
REMARK  225  A    between atoms: _555  and  _558
REMARK  226  A    between atoms: _558  and  _559
REMARK  227  A    between atoms: _559  and  _560
REMARK  228  A    between atoms: _567  and  _568
REMARK  229  A    between atoms: _568  and  _584
REMARK  230  A    between atoms: _569  and  _571
REMARK  231  A    between atoms: _571  and  _572
REMARK  232  A    between atoms: _572  and  _573
REMARK  233  A    between atoms: _577  and  _579
REMARK  234  A    between atoms: _579  and  _580
REMARK  235  A    between atoms: _579  and  _587
REMARK  236  A    between atoms: _580  and  _581
REMARK  237  A    between atoms: _581  and  _582
REMARK  238  A    between atoms: _582  and  _583
REMARK  239  A    between atoms: _583  and  _584
REMARK  240  A    between atoms: _589  and  _591
REMARK  241  A    between atoms: _591  and  _592
REMARK  242  A    between atoms: _591  and  _594
REMARK  243  A    between atoms: _594  and  _595
REMARK  244  A    between atoms: _598  and  _600
REMARK  245  A    between atoms: _600  and  _601
REMARK  246  A    between atoms: _603  and  _605
REMARK  247  A    between atoms: _605  and  _606
REMARK  248  A    between atoms: _609  and  _611
REMARK  249  A    between atoms: _611  and  _612
REMARK  250  A    between atoms: _611  and  _614
REMARK  251  A    between atoms: _614  and  _615
REMARK  252  A    between atoms: _618  and  _620
REMARK  253  A    between atoms: _620  and  _621
REMARK  254  A    between atoms: _620  and  _623
REMARK  255  A    between atoms: _623  and  _624
REMARK  256  A    between atoms: _629  and  _630
REMARK                            x       y       z     vdW  Elec       q    Type
REMARK                         _______ _______ _______ _____ _____    ______ ____
ROOT
ATOM      1  NE  ARG A   1      39.299  25.820  40.153  0.00  0.00    -0.265 N 
ATOM      2  HE  ARG A   1      40.185  25.603  39.653  0.00  0.00    +0.259 HD
ATOM      3  CZ  ARG A   1      38.172  25.376  39.591  0.00  0.00    +0.342 C 
ATOM      4  NH2 ARG A   1      36.984  25.587  40.150  0.00  0.00    -0.292 N 
ATOM      5 HH21 ARG A   1      36.917  26.109  41.047  0.00  0.00    +0.255 HD
ATOM      6 HH22 ARG A   1      36.122  25.230  39.690  0.00  0.00    +0.255 HD
ATOM      7  NH1 ARG A   1      38.254  24.695  38.453  0.00  0.00    -0.292 N 
ATOM      8 HH11 ARG A   1      39.182  24.518  38.019  0.00  0.00    +0.255 HD
ATOM      9 HH12 ARG A   1      37.390  24.339  37.997  0.00  0.00    +0.255 HD
ENDROOT
BRANCH   1  10
ATOM     10  CD  ARG A   1      39.419  26.573  41.388  0.00  0.00    +0.174 C 
BRANCH  10  11
ATOM     11  CG  ARG A   1      40.800  27.292  41.405  0.00  0.00    +0.045 C 
BRANCH  11  12
ATOM     12  CB  ARG A   1      40.980  28.285  42.565  0.00  0.00    +0.029 C 
BRANCH  12  13
ATOM     13  CA  ARG A   1      40.912  27.673  43.971  0.00  0.00    +0.133 C 
BRANCH  13  14
ATOM     14  N   ARG A   1      41.189  28.687  45.021  0.00  0.00    -0.239 NA
ATOM     15  H   ARG A   1      41.515  29.635  44.743  0.00  0.00    +0.142 HD
ENDBRANCH  13  14
BRANCH  13  16
ATOM     16  C   ARG A   1      41.826  26.437  44.074  0.00  0.00    +0.224 C 
ATOM     17  O   ARG A   1      41.359  25.302  43.971  0.00  0.00    -0.287 OA
ENDBRANCH  13  16
ENDBRANCH  12  13
ENDBRANCH  11  12
ENDBRANCH  10  11
ENDBRANCH   1  10
TORSDOF 6
REMARK  Name = ../refined-set-2016/3syr/3syr_pocket.pdb
REMARK  256 active torsions:
REMARK  status: ('A' for Active; 'I' for Inactive)
REMARK    1  A    between atoms: _1  and  _3
REMARK    2  A    between atoms: _3  and  _4
REMARK    3  A    between atoms: _3  and  _6
REMARK    4  A    between atoms: _6  and  _7
REMARK    5  A    between atoms: _12  and  _13
REMARK    6  A    between atoms: _15  and  _17
REMARK    7  A    between atoms: _17  and  _18
REMARK    8  A    between atoms: _17  and  _20
REMARK    9  A    between atoms: _20  and  _21
REMARK   10  A    between atoms: _21  and  _22
REMARK   11  A    between atoms: _25  and  _27
REMARK   12  A    between atoms: _27  and  _28
REMARK   13  A    between atoms: _27  and  _30
REMARK   14  A    between atoms: _30  and  _31
REMARK   15  A    between atoms: _36  and  _37
REMARK   16  A    between atoms: _39  and  _41
REMARK   17  A    between atoms: _41  and  _42
REMARK   18  A    between atoms: _41  and  _44
REMARK   19  A    between atoms: _44  and  _45
REMARK   20  A    between atoms: _50  and  _52
REMARK   21  A    between atoms: _52  and  _53
REMARK   22  A    between atoms: _55  and  _57
REMARK   23  A    between atoms: _57  and  _58
REMARK   24  A    between atoms: _60  and  _62
REMARK   25  A    between atoms: _62  and  _63
REMARK   26  A    between atoms: _62  and  _65
REMARK   27  A    between atoms: _65  and  _66
REMARK   28  A    between atoms: _69  and  _71
REMARK   29  A    between atoms: _71  and  _72
REMARK   30  A    between atoms: _74  and  _76
REMARK   31  A    between atoms: _76  and  _77
REMARK   32  A    between atoms: _76  and  _79
REMARK   33  A    between atoms: _79  and  _80
REMARK   34  A    between atoms: _80  and  _81
REMARK   35  A    between atoms: _81  and  _82
REMARK   36  A    between atoms: _91  and  _93
REMARK   37  A    between atoms: _93  and  _94
REMARK   38  A    between atoms: _93  and  _96
REMARK   39  A    between atoms: _96  and  _97
REMARK   40  A    between atoms: _100  and  _102
REMARK   41  A    between atoms: _102  and  _103
REMARK   42  A    between atoms: _106  and  _108
REMARK   43  A    between atoms: _108  and  _109
REMARK   44  A    between atoms: _108  and  _111
REMARK   45  A    between atoms: _111  and  _112
REMARK   46  A    between atoms: _118  and  _120
REMARK   47  A    between atoms: _120  and  _121
REMARK   48  A    between atoms: _120  and  _123
REMARK   49  A    between atoms: _123  and  _124
REMARK   50  A    between atoms: _129  and  _131
REMARK   51  A    between atoms: _131  and  _132
REMARK   52  A    between atoms: _131  and  _134
REMARK   53  A    between atoms: _134  and  _135
REMARK   54  A    between atoms: _138  and  _140
REMARK   55  A    between atoms: _140  and  _141
REMARK   56  A    between atoms: _140  and  _143
REMARK   57  A    between atoms: _143  and  _144
REMARK   58  A    between atoms: _149  and  _151
REMARK   59  A    between atoms: _151  and  _152
REMARK   60  A    between atoms: _151  and  _154
REMARK   61  A    between atoms: _154  and  _155
REMARK   62  A    between atoms: _161  and  _163
REMARK   63  A    between atoms: _163  and  _164
REMARK   64  A    between atoms: _163  and  _166
REMARK   65  A    between atoms: _166  and  _167
REMARK   66  A    between atoms: _173  and  _175
REMARK   67  A    between atoms: _175  and  _176
REMARK   68  A    between atoms: _175  and  _178
REMARK   69  A    between atoms: _178  and  _179
REMARK   70  A    between atoms: _179  and  _180
REMARK   71  A    between atoms: _180  and  _181
REMARK   72  A    between atoms: _190  and  _192
REMARK   73  A    between atoms: _192  and  _193
REMARK   74  A    between atoms: _192  and  _195
REMARK   75  A    between atoms: _195  and  _196
REMARK   76  A    between atoms: _201  and  _203
REMARK   77  A    between atoms: _203  and  _204
REMARK   78  A    between atoms: _203  and  _206
REMARK   79  A    between atoms: _206  and  _207
REMARK   80  A    between atoms: _210  and  _212
REMARK   81  A    between atoms: _212  and  _213
REMARK   82  A    between atoms: _212  and  _215
REMARK   83  A    between atoms: _215  and  _216
REMARK   84  A    between atoms: _219  and  _221
REMARK   85  A    between atoms: _221  and  _222
REMARK   86  A    between atoms: _221  and  _224
REMARK   87  A    between atoms: _224  and  _225
REMARK   88  A    between atoms: _230  and  _232
REMARK   89  A    between atoms: _232  and  _233
REMARK   90  A    between atoms: _232  and  _235
REMARK   91  A    between atoms: _235  and  _236
REMARK   92  A    between atoms: _241  and  _242
REMARK   93  A    between atoms: _244  and  _246
REMARK   94  A    between atoms: _246  and  _247
REMARK   95  A    between atoms: _246  and  _249
REMARK   96  A    between atoms: _249  and  _250
REMARK   97  A    between atoms: _253  and  _255
REMARK   98  A    between atoms: _255  and  _256
REMARK   99  A    between atoms: _255  and  _258
REMARK  100  A    between atoms: _258  and  _259
REMARK  101  A    between atoms: _264  and  _266
REMARK  102  A    between atoms: _266  and  _267
REMARK  103  A    between atoms: _266  and  _269
REMARK  104  A    between atoms: _269  and  _270
REMARK  105  A    between atoms: _275  and  _277
REMARK  106  A    between atoms: _277  and  _278
REMARK  107  A    between atoms: _277  and  _280
REMARK  108  A    between atoms: _280  and  _281
REMARK  109  A    between atoms: _284  and  _286
REMARK  110  A    between atoms: _286  and  _287
REMARK  111  A    between atoms: _286  and  _289
REMARK  112  A    between atoms: _292  and  _294
REMARK  113  A    between atoms: _294  and  _295
REMARK  114  A    between atoms: _294  and  _297
REMARK  115  A    between atoms: _297  and  _298
REMARK  116  A    between atoms: _301  and  _303
REMARK  117  A    between atoms: _303  and  _304
REMARK  118  A    between atoms: _307  and  _309
REMARK  119  A    between atoms: _309  and  _310
REMARK  120  A    between atoms: _309  and  _312
REMARK  121  A    between atoms: _312  and  _313
REMARK  122  A    between atoms: _316  and  _318
REMARK  123  A    between atoms: _318  and  _319
REMARK  124  A    between atoms: _318  and  _321
REMARK  125  A    between atoms: _321  and  _322
REMARK  126  A    between atoms: _322  and  _323
REMARK  127  A    between atoms: _326  and  _328
REMARK  128  A    between atoms: _328  and  _329
REMARK  129  A    between atoms: _328  and  _331
REMARK  130  A    between atoms: _331  and  _332
REMARK  131  A    between atoms: _337  and  _339
REMARK  132  A    between atoms: _339  and  _340
REMARK  133  A    between atoms: _342  and  _344
REMARK  134  A    between atoms: _344  and  _345
REMARK  135  A    between atoms: _344  and  _347
REMARK  136  A    between atoms: _350  and  _352
REMARK  137  A    between atoms: _352  and  _353
REMARK  138  A    between atoms: _356  and  _358
REMARK  139  A    between atoms: _358  and  _359
REMARK  140  A    between atoms: _358  and  _361
REMARK  141  A    between atoms: _361  and  _362
REMARK  142  A    between atoms: _367  and  _369
REMARK  143  A    between atoms: _369  and  _370
REMARK  144  A    between atoms: _369  and  _372
REMARK  145  A    between atoms: _372  and  _373
REMARK  146  A    between atoms: _373  and  _374
REMARK  147  A    between atoms: _374  and  _375
REMARK  148  A    between atoms: _375  and  _376
REMARK  149  A    between atoms: _380  and  _382
REMARK  150  A    between atoms: _382  and  _383
REMARK  151  A    between atoms: _382  and  _385
REMARK  152  A    between atoms: _385  and  _386
REMARK  153  A    between atoms: _389  and  _391
REMARK  154  A    between atoms: _391  and  _392
REMARK  155  A    between atoms: _391  and  _394
REMARK  156  A    between atoms: _394  and  _395
REMARK  157  A    between atoms: _400  and  _402
REMARK  158  A    between atoms: _402  and  _403
REMARK  159  A    between atoms: _405  and  _407
REMARK  160  A    between atoms: _407  and  _408
REMARK  161  A    between atoms: _407  and  _410
REMARK  162  A    between atoms: _410  and  _411
REMARK  163  A    between atoms: _414  and  _416
REMARK  164  A    between atoms: _416  and  _417
REMARK  165  A    between atoms: _416  and  _419
REMARK  166  A    between atoms: _419  and  _420
REMARK  167  A    between atoms: _420  and  _421
REMARK  168  A    between atoms: _421  and  _422
REMARK  169  A    between atoms: _422  and  _423
REMARK  170  A    between atoms: _427  and  _429
REMARK  171  A    between atoms: _429  and  _430
REMARK  172  A    between atoms: _429  and  _432
REMARK  173  A    between atoms: _432  and  _433
REMARK  174  A    between atoms: _433  and  _434
REMARK  175  A    between atoms: _434  and  _435
REMARK  176  A    between atoms: _444  and  _446
REMARK  177  A    between atoms: _446  and  _447
REMARK  178  A    between atoms: _446  and  _449
REMARK  179  A    between atoms: _449  and  _450
REMARK  180  A    between atoms: _455  and  _457
REMARK  181  A    between atoms: _457  and  _458
REMARK  182  A    between atoms: _457  and  _460
REMARK  183  A    between atoms: _460  and  _461
REMARK  184  A    between atoms: _466  and  _467
REMARK  185  A    between atoms: _469  and  _471
REMARK  186  A    between atoms: _471  and  _472
REMARK  187  A    between atoms: _471  and  _474
REMARK  188  A    between atoms: _474  and  _475
REMARK  189  A    between atoms: _475  and  _476
REMARK  190  A    between atoms: _476  and  _477
REMARK  191  A    between atoms: _477  and  _478
REMARK  192  A    between atoms: _482  and  _484
REMARK  193  A    between atoms: _484  and  _485
REMARK  194  A    between atoms: _484  and  _487
REMARK  195  A    between atoms: _487  and  _488
REMARK  196  A    between atoms: _490  and  _492
REMARK  197  A    between atoms: _492  and  _493
REMARK  198  A    between atoms: _492  and  _495
REMARK  199  A    between atoms: _495  and  _496
REMARK  200  A    between atoms: _499  and  _501
REMARK  201  A    between atoms: _501  and  _502
REMARK  202  A    between atoms: _501  and  _504
REMARK  203  A    between atoms: _504  and  _505
REMARK  204  A    between atoms: _505  and  _506
REMARK  205  A    between atoms: _509  and  _511
REMARK  206  A    between atoms: _511  and  _512
REMARK  207  A    between atoms: _515  and  _517
REMARK  208  A    between atoms: _517  and  _518
REMARK  209  A    between atoms: _517  and  _520
REMARK  210  A    between atoms: _520  and  _521
REMARK  211  A    between atoms: _523  and  _525
REMARK  212  A    between atoms: _525  and  _526
REMARK  213  A    between atoms: _528  and  _530
REMARK  214  A    between atoms: _530  and  _531
REMARK  215  A    between atoms: _530  and  _533
REMARK  216  A    between atoms: _533  and  _534
REMARK  217  A    between atoms: _537  and  _539
REMARK  218  A    between atoms: _539  and  _540
REMARK  219  A    between atoms: _542  and  _544
REMARK  220  A    between atoms: _544  and  _545
REMARK  221  A    between atoms: _544  and  _547
REMARK  222  A    between atoms: _547  and  _548
REMARK  223  A    between atoms: _553  and  _555
REMARK  224  A    between atoms: _555  and  _556
REMARK  225  A    between atoms: _555  and  _558
REMARK  226  A    between atoms: _558  and  _559
REMARK  227  A    between atoms: _559  and  _560
REMARK  228  A    between atoms: _567  and  _568
REMARK  229  A    between atoms: _568  and  _584
REMARK  230  A    between atoms: _569  and  _571
REMARK  231  A    between atoms: _571  and  _572
REMARK  232  A    between atoms: _572  and  _573
REMARK  233  A    between atoms: _577  and  _579
REMARK  234  A    between atoms: _579  and  _580
REMARK  235  A    between atoms: _579  and  _587
REMARK  236  A    between atoms: _580  and  _581
REMARK  237  A    between atoms: _581  and  _582
REMARK  238  A    between atoms: _582  and  _583
REMARK  239  A    between atoms: _583  and  _584
REMARK  240  A    between atoms: _589  and  _591
REMARK  241  A    between atoms: _591  and  _592
REMARK  242  A    between atoms: _591  and  _594
REMARK  243  A    between atoms: _594  and  _595
REMARK  244  A    between atoms: _598  and  _600
REMARK  245  A    between atoms: _600  and  _601
REMARK  246  A    between atoms: _603  and  _605
REMARK  247  A    between atoms: _605  and  _606
REMARK  248  A    between atoms: _609  and  _611
REMARK  249  A    between atoms: _611  and  _612
REMARK  250  A    between atoms: _611  and  _614
REMARK  251  A    between atoms: _614  and  _615
REMARK  252  A    between atoms: _618  and  _620
REMARK  253  A    between atoms: _620  and  _621
REMARK  254  A    between atoms: _620  and  _623
REMARK  255  A    between atoms: _623  and  _624
REMARK  256  A    between atoms: _629  and  _630
REMARK                            x       y       z     vdW  Elec       q    Type
REMARK                         _______ _______ _______ _____ _____    ______ ____
ROOT
ATOM      1  C   ASP A   2      41.056  18.275  33.895  0.00  0.00    +0.241 C 
ATOM      2  O   ASP A   2      41.223  17.245  34.540  0.00  0.00    -0.273 OA
ATOM      3  N   THR A   3      41.874  19.320  33.993  0.00  0.00    -0.295 N 
ATOM      4  H   THR A   3      41.676  20.174  33.434  0.00  0.00    +0.150 HD
ENDROOT
BRANCH   1   5
ATOM      5  CA  ASP A   2      39.889  18.380  32.909  0.00  0.00    +0.160 C 
BRANCH   5   8
ATOM      6  C   ASN A   1      38.164  17.183  34.261  0.00  0.00    +0.239 C 
ATOM      7  O   ASN A   1      38.115  18.044  35.158  0.00  0.00    -0.274 OA
ATOM      8  N   ASP A   2      38.900  17.308  33.145  0.00  0.00    -0.297 N 
ATOM      9  H   ASP A   2      38.764  16.601  32.394  0.00  0.00    +0.150 HD
BRANCH   6  10
ATOM     10  CA  ASN A   1      37.392  15.871  34.390  0.00  0.00    +0.154 C 
BRANCH  10  11
ATOM     11  N   ASN A   1      38.204  14.928  35.154  0.00  0.00    -0.238 NA
ATOM     12  H   ASN A   1      37.979  14.793  36.160  0.00  0.00    +0.142 HD
ENDBRANCH  10  11
BRANCH  10  13
ATOM     13  CB  ASN A   1      36.025  16.087  35.070  0.00  0.00    +0.111 C 
BRANCH  13  14
ATOM     14  CG  ASN A   1      34.977  16.700  34.124  0.00  0.00    +0.221 C 
ATOM     15  ND2 ASN A   1      33.928  17.287  34.693  0.00  0.00    -0.329 N 
ATOM     16 HD21 ASN A   1      33.846  17.314  35.729  0.00  0.00    +0.145 HD
ATOM     17 HD22 ASN A   1      33.190  17.719  34.102  0.00  0.00    +0.145 HD
ATOM     18  OD1 ASN A   1      35.119  16.643  32.894  0.00  0.00    -0.275 OA
ENDBRANCH  13  14
ENDBRANCH  10  13
ENDBRANCH   6  10
ENDBRANCH   5   8
BRANCH   5  19
ATOM     19  CB  ASP A   2      39.266  19.782  32.888  0.00  0.00    +0.143 C 
BRANCH  19  20
ATOM     20  CG  ASP A   2      39.934  20.697  31.864  0.00  0.00    +0.367 C 
ATOM     21  OD2 ASP A   2      40.728  21.524  32.269  0.00  0.00    -0.246 OA
ATOM     22  OD1 ASP A   2      39.711  20.578  30.638  0.00  0.00    -0.246 OA
ENDBRANCH  19  20
ENDBRANCH   5  19
ENDBRANCH   1   5
BRANCH   3  23
ATOM     23  CA  THR A   3      43.042  19.295  34.866  0.00  0.00    +0.176 C 
BRANCH  23  24
ATOM     24  C   THR A   3      42.703  19.694  36.302  0.00  0.00    +0.243 C 
ATOM     25  O   THR A   3      43.592  19.718  37.164  0.00  0.00    -0.273 OA
ATOM     26  N   HIS A   4      41.427  19.999  36.572  0.00  0.00    -0.298 N 
ATOM     27  H   HIS A   4      40.699  19.875  35.839  0.00  0.00    +0.150 HD
BRANCH  26  28
ATOM     28  CA  HIS A   4      41.050  20.507  37.897  0.00  0.00    +0.143 C 
BRANCH  28  29
ATOM     29  C   HIS A   4      41.466  19.582  39.052  0.00  0.00    +0.227 C 
ATOM     30  O   HIS A   4      41.937  20.060  40.087  0.00  0.00    -0.286 OA
ENDBRANCH  28  29
BRANCH  28  31
ATOM     31  CB  HIS A   4      39.566  20.957  37.971  0.00  0.00    +0.075 C 
BRANCH  31  32
ATOM     32  CG  HIS A   4      39.154  21.889  36.858  0.00  0.00    +0.082 A 
ATOM     33  ND1 HIS A   4      37.853  21.975  36.399  0.00  0.00    -0.227 NA
ATOM     34  CE1 HIS A   4      37.787  22.868  35.421  0.00  0.00    +0.199 A 
ATOM     35  NE2 HIS A   4      39.001  23.354  35.215  0.00  0.00    -0.221 NA
ATOM     36  CD2 HIS A   4      39.878  22.751  36.089  0.00  0.00    +0.115 A 
ENDBRANCH  31  32
ENDBRANCH  28  31
ENDBRANCH  26  28
ENDBRANCH  23  24
BRANCH  23  37
ATOM     37  CB  THR A   3      44.173  20.231  34.345  0.00  0.00    +0.137 C 
ATOM     38  CG2 THR A   3      44.703  19.758  33.000  0.00  0.00    +0.034 C 
BRANCH  37  39
ATOM     39  OG1 THR A   3      43.659  21.553  34.205  0.00  0.00    -0.382 OA
ATOM     40  HG1 THR A   3      43.338  21.876  35.084  0.00  0.00    +0.210 HD
ENDBRANCH  37  39
ENDBRANCH  23  37
ENDBRANCH   3  23
TORSDOF 16
REMARK  Name = ../refined-set-2016/3syr/3syr_pocket.pdb
REMARK  256 active torsions:
REMARK  status: ('A' for Active; 'I' for Inactive)
REMARK    1  A    between atoms: _1  and  _3
REMARK    2  A    between atoms: _3  and  _4
REMARK    3  A    between atoms: _3  and  _6
REMARK    4  A    between atoms: _6  and  _7
REMARK    5  A    between atoms: _12  and  _13
REMARK    6  A    between atoms: _15  and  _17
REMARK    7  A    between atoms: _17  and  _18
REMARK    8  A    between atoms: _17  and  _20
REMARK    9  A    between atoms: _20  and  _21
REMARK   10  A    between atoms: _21  and  _22
REMARK   11  A    between atoms: _25  and  _27
REMARK   12  A    between atoms: _27  and  _28
REMARK   13  A    between atoms: _27  and  _30
REMARK   14  A    between atoms: _30  and  _31
REMARK   15  A    between atoms: _36  and  _37
REMARK   16  A    between atoms: _39  and  _41
REMARK   17  A    between atoms: _41  and  _42
REMARK   18  A    between atoms: _41  and  _44
REMARK   19  A    between atoms: _44  and  _45
REMARK   20  A    between atoms: _50  and  _52
REMARK   21  A    between atoms: _52  and  _53
REMARK   22  A    between atoms: _55  and  _57
REMARK   23  A    between atoms: _57  and  _58
REMARK   24  A    between atoms: _60  and  _62
REMARK   25  A    between atoms: _62  and  _63
REMARK   26  A    between atoms: _62  and  _65
REMARK   27  A    between atoms: _65  and  _66
REMARK   28  A    between atoms: _69  and  _71
REMARK   29  A    between atoms: _71  and  _72
REMARK   30  A    between atoms: _74  and  _76
REMARK   31  A    between atoms: _76  and  _77
REMARK   32  A    between atoms: _76  and  _79
REMARK   33  A    between atoms: _79  and  _80
REMARK   34  A    between atoms: _80  and  _81
REMARK   35  A    between atoms: _81  and  _82
REMARK   36  A    between atoms: _91  and  _93
REMARK   37  A    between atoms: _93  and  _94
REMARK   38  A    between atoms: _93  and  _96
REMARK   39  A    between atoms: _96  and  _97
REMARK   40  A    between atoms: _100  and  _102
REMARK   41  A    between atoms: _102  and  _103
REMARK   42  A    between atoms: _106  and  _108
REMARK   43  A    between atoms: _108  and  _109
REMARK   44  A    between atoms: _108  and  _111
REMARK   45  A    between atoms: _111  and  _112
REMARK   46  A    between atoms: _118  and  _120
REMARK   47  A    between atoms: _120  and  _121
REMARK   48  A    between atoms: _120  and  _123
REMARK   49  A    between atoms: _123  and  _124
REMARK   50  A    between atoms: _129  and  _131
REMARK   51  A    between atoms: _131  and  _132
REMARK   52  A    between atoms: _131  and  _134
REMARK   53  A    between atoms: _134  and  _135
REMARK   54  A    between atoms: _138  and  _140
REMARK   55  A    between atoms: _140  and  _141
REMARK   56  A    between atoms: _140  and  _143
REMARK   57  A    between atoms: _143  and  _144
REMARK   58  A    between atoms: _149  and  _151
REMARK   59  A    between atoms: _151  and  _152
REMARK   60  A    between atoms: _151  and  _154
REMARK   61  A    between atoms: _154  and  _155
REMARK   62  A    between atoms: _161  and  _163
REMARK   63  A    between atoms: _163  and  _164
REMARK   64  A    between atoms: _163  and  _166
REMARK   65  A    between atoms: _166  and  _167
REMARK   66  A    between atoms: _173  and  _175
REMARK   67  A    between atoms: _175  and  _176
REMARK   68  A    between atoms: _175  and  _178
REMARK   69  A    between atoms: _178  and  _179
REMARK   70  A    between atoms: _179  and  _180
REMARK   71  A    between atoms: _180  and  _181
REMARK   72  A    between atoms: _190  and  _192
REMARK   73  A    between atoms: _192  and  _193
REMARK   74  A    between atoms: _192  and  _195
REMARK   75  A    between atoms: _195  and  _196
REMARK   76  A    between atoms: _201  and  _203
REMARK   77  A    between atoms: _203  and  _204
REMARK   78  A    between atoms: _203  and  _206
REMARK   79  A    between atoms: _206  and  _207
REMARK   80  A    between atoms: _210  and  _212
REMARK   81  A    between atoms: _212  and  _213
REMARK   82  A    between atoms: _212  and  _215
REMARK   83  A    between atoms: _215  and  _216
REMARK   84  A    between atoms: _219  and  _221
REMARK   85  A    between atoms: _221  and  _222
REMARK   86  A    between atoms: _221  and  _224
REMARK   87  A    between atoms: _224  and  _225
REMARK   88  A    between atoms: _230  and  _232
REMARK   89  A    between atoms: _232  and  _233
REMARK   90  A    between atoms: _232  and  _235
REMARK   91  A    between atoms: _235  and  _236
REMARK   92  A    between atoms: _241  and  _242
REMARK   93  A    between atoms: _244  and  _246
REMARK   94  A    between atoms: _246  and  _247
REMARK   95  A    between atoms: _246  and  _249
REMARK   96  A    between atoms: _249  and  _250
REMARK   97  A    between atoms: _253  and  _255
REMARK   98  A    between atoms: _255  and  _256
REMARK   99  A    between atoms: _255  and  _258
REMARK  100  A    between atoms: _258  and  _259
REMARK  101  A    between atoms: _264  and  _266
REMARK  102  A    between atoms: _266  and  _267
REMARK  103  A    between atoms: _266  and  _269
REMARK  104  A    between atoms: _269  and  _270
REMARK  105  A    between atoms: _275  and  _277
REMARK  106  A    between atoms: _277  and  _278
REMARK  107  A    between atoms: _277  and  _280
REMARK  108  A    between atoms: _280  and  _281
REMARK  109  A    between atoms: _284  and  _286
REMARK  110  A    between atoms: _286  and  _287
REMARK  111  A    between atoms: _286  and  _289
REMARK  112  A    between atoms: _292  and  _294
REMARK  113  A    between atoms: _294  and  _295
REMARK  114  A    between atoms: _294  and  _297
REMARK  115  A    between atoms: _297  and  _298
REMARK  116  A    between atoms: _301  and  _303
REMARK  117  A    between atoms: _303  and  _304
REMARK  118  A    between atoms: _307  and  _309
REMARK  119  A    between atoms: _309  and  _310
REMARK  120  A    between atoms: _309  and  _312
REMARK  121  A    between atoms: _312  and  _313
REMARK  122  A    between atoms: _316  and  _318
REMARK  123  A    between atoms: _318  and  _319
REMARK  124  A    between atoms: _318  and  _321
REMARK  125  A    between atoms: _321  and  _322
REMARK  126  A    between atoms: _322  and  _323
REMARK  127  A    between atoms: _326  and  _328
REMARK  128  A    between atoms: _328  and  _329
REMARK  129  A    between atoms: _328  and  _331
REMARK  130  A    between atoms: _331  and  _332
REMARK  131  A    between atoms: _337  and  _339
REMARK  132  A    between atoms: _339  and  _340
REMARK  133  A    between atoms: _342  and  _344
REMARK  134  A    between atoms: _344  and  _345
REMARK  135  A    between atoms: _344  and  _347
REMARK  136  A    between atoms: _350  and  _352
REMARK  137  A    between atoms: _352  and  _353
REMARK  138  A    between atoms: _356  and  _358
REMARK  139  A    between atoms: _358  and  _359
REMARK  140  A    between atoms: _358  and  _361
REMARK  141  A    between atoms: _361  and  _362
REMARK  142  A    between atoms: _367  and  _369
REMARK  143  A    between atoms: _369  and  _370
REMARK  144  A    between atoms: _369  and  _372
REMARK  145  A    between atoms: _372  and  _373
REMARK  146  A    between atoms: _373  and  _374
REMARK  147  A    between atoms: _374  and  _375
REMARK  148  A    between atoms: _375  and  _376
REMARK  149  A    between atoms: _380  and  _382
REMARK  150  A    between atoms: _382  and  _383
REMARK  151  A    between atoms: _382  and  _385
REMARK  152  A    between atoms: _385  and  _386
REMARK  153  A    between atoms: _389  and  _391
REMARK  154  A    between atoms: _391  and  _392
REMARK  155  A    between atoms: _391  and  _394
REMARK  156  A    between atoms: _394  and  _395
REMARK  157  A    between atoms: _400  and  _402
REMARK  158  A    between atoms: _402  and  _403
REMARK  159  A    between atoms: _405  and  _407
REMARK  160  A    between atoms: _407  and  _408
REMARK  161  A    between atoms: _407  and  _410
REMARK  162  A    between atoms: _410  and  _411
REMARK  163  A    between atoms: _414  and  _416
REMARK  164  A    between atoms: _416  and  _417
REMARK  165  A    between atoms: _416  and  _419
REMARK  166  A    between atoms: _419  and  _420
REMARK  167  A    between atoms: _420  and  _421
REMARK  168  A    between atoms: _421  and  _422
REMARK  169  A    between atoms: _422  and  _423
REMARK  170  A    between atoms: _427  and  _429
REMARK  171  A    between atoms: _429  and  _430
REMARK  172  A    between atoms: _429  and  _432
REMARK  173  A    between atoms: _432  and  _433
REMARK  174  A    between atoms: _433  and  _434
REMARK  175  A    between atoms: _434  and  _435
REMARK  176  A    between atoms: _444  and  _446
REMARK  177  A    between atoms: _446  and  _447
REMARK  178  A    between atoms: _446  and  _449
REMARK  179  A    between atoms: _449  and  _450
REMARK  180  A    between atoms: _455  and  _457
REMARK  181  A    between atoms: _457  and  _458
REMARK  182  A    between atoms: _457  and  _460
REMARK  183  A    between atoms: _460  and  _461
REMARK  184  A    between atoms: _466  and  _467
REMARK  185  A    between atoms: _469  and  _471
REMARK  186  A    between atoms: _471  and  _472
REMARK  187  A    between atoms: _471  and  _474
REMARK  188  A    between atoms: _474  and  _475
REMARK  189  A    between atoms: _475  and  _476
REMARK  190  A    between atoms: _476  and  _477
REMARK  191  A    between atoms: _477  and  _478
REMARK  192  A    between atoms: _482  and  _484
REMARK  193  A    between atoms: _484  and  _485
REMARK  194  A    between atoms: _484  and  _487
REMARK  195  A    between atoms: _487  and  _488
REMARK  196  A    between atoms: _490  and  _492
REMARK  197  A    between atoms: _492  and  _493
REMARK  198  A    between atoms: _492  and  _495
REMARK  199  A    between atoms: _495  and  _496
REMARK  200  A    between atoms: _499  and  _501
REMARK  201  A    between atoms: _501  and  _502
REMARK  202  A    between atoms: _501  and  _504
REMARK  203  A    between atoms: _504  and  _505
REMARK  204  A    between atoms: _505  and  _506
REMARK  205  A    between atoms: _509  and  _511
REMARK  206  A    between atoms: _511  and  _512
REMARK  207  A    between atoms: _515  and  _517
REMARK  208  A    between atoms: _517  and  _518
REMARK  209  A    between atoms: _517  and  _520
REMARK  210  A    between atoms: _520  and  _521
REMARK  211  A    between atoms: _523  and  _525
REMARK  212  A    between atoms: _525  and  _526
REMARK  213  A    between atoms: _528  and  _530
REMARK  214  A    between atoms: _530  and  _531
REMARK  215  A    between atoms: _530  and  _533
REMARK  216  A    between atoms: _533  and  _534
REMARK  217  A    between atoms: _537  and  _539
REMARK  218  A    between atoms: _539  and  _540
REMARK  219  A    between atoms: _542  and  _544
REMARK  220  A    between atoms: _544  and  _545
REMARK  221  A    between atoms: _544  and  _547
REMARK  222  A    between atoms: _547  and  _548
REMARK  223  A    between atoms: _553  and  _555
REMARK  224  A    between atoms: _555  and  _556
REMARK  225  A    between atoms: _555  and  _558
REMARK  226  A    between atoms: _558  and  _559
REMARK  227  A    between atoms: _559  and  _560
REMARK  228  A    between atoms: _567  and  _568
REMARK  229  A    between atoms: _568  and  _584
REMARK  230  A    between atoms: _569  and  _571
REMARK  231  A    between atoms: _571  and  _572
REMARK  232  A    between atoms: _572  and  _573
REMARK  233  A    between atoms: _577  and  _579
REMARK  234  A    between atoms: _579  and  _580
REMARK  235  A    between atoms: _579  and  _587
REMARK  236  A    between atoms: _580  and  _581
REMARK  237  A    between atoms: _581  and  _582
REMARK  238  A    between atoms: _582  and  _583
REMARK  239  A    between atoms: _583  and  _584
REMARK  240  A    between atoms: _589  and  _591
REMARK  241  A    between atoms: _591  and  _592
REMARK  242  A    between atoms: _591  and  _594
REMARK  243  A    between atoms: _594  and  _595
REMARK  244  A    between atoms: _598  and  _600
REMARK  245  A    between atoms: _600  and  _601
REMARK  246  A    between atoms: _603  and  _605
REMARK  247  A    between atoms: _605  and  _606
REMARK  248  A    between atoms: _609  and  _611
REMARK  249  A    between atoms: _611  and  _612
REMARK  250  A    between atoms: _611  and  _614
REMARK  251  A    between atoms: _614  and  _615
REMARK  252  A    between atoms: _618  and  _620
REMARK  253  A    between atoms: _620  and  _621
REMARK  254  A    between atoms: _620  and  _623
REMARK  255  A    between atoms: _623  and  _624
REMARK  256  A    between atoms: _629  and  _630
REMARK                            x       y       z     vdW  Elec       q    Type
REMARK                         _______ _______ _______ _____ _____    ______ ____
ROOT
ATOM      1  C   ASN A   3      39.454  18.203  27.303  0.00  0.00    +0.241 C 
ATOM      2  N   HIS A   4      39.163  19.450  27.647  0.00  0.00    -0.297 N 
ATOM      3  H   HIS A   4      39.825  19.989  28.241  0.00  0.00    +0.150 HD
ATOM      4  O   ASN A   3      38.778  17.557  26.494  0.00  0.00    -0.273 OA
ENDROOT
BRANCH   2   5
ATOM      5  CA  HIS A   4      37.930  20.067  27.201  0.00  0.00    +0.155 C 
BRANCH   5   6
ATOM      6  C   HIS A   4      38.119  21.354  26.417  0.00  0.00    +0.241 C 
ATOM      7  N   THR A   5      39.358  21.738  26.130  0.00  0.00    -0.295 N 
ATOM      8  H   THR A   5      40.158  21.113  26.357  0.00  0.00    +0.150 HD
ATOM      9  O   HIS A   4      37.140  22.017  26.101  0.00  0.00    -0.273 OA
BRANCH   7  10
ATOM     10  CA  THR A   5      39.608  23.044  25.492  0.00  0.00    +0.176 C 
BRANCH  10  11
ATOM     11  C   THR A   5      41.027  23.152  24.951  0.00  0.00    +0.243 C 
ATOM     12  O   THR A   5      41.929  22.460  25.424  0.00  0.00    -0.273 OA
ATOM     13  N   VAL A   6      41.222  24.021  23.962  0.00  0.00    -0.297 N 
ATOM     14  H   VAL A   6      40.406  24.513  23.545  0.00  0.00    +0.150 HD
BRANCH  13  15
ATOM     15  CA  VAL A   6      42.563  24.296  23.452  0.00  0.00    +0.149 C 
BRANCH  15  16
ATOM     16  C   VAL A   6      42.888  25.774  23.590  0.00  0.00    +0.241 C 
ATOM     17  N   LEU A   7      41.934  26.549  24.117  0.00  0.00    -0.298 N 
ATOM     18  H   LEU A   7      41.013  26.124  24.347  0.00  0.00    +0.150 HD
ATOM     19  O   VAL A   6      43.979  26.202  23.217  0.00  0.00    -0.273 OA
BRANCH  17  20
ATOM     20  CA  LEU A   7      42.138  27.969  24.381  0.00  0.00    +0.137 C 
BRANCH  20  21
ATOM     21  C   LEU A   7      43.252  28.123  25.412  0.00  0.00    +0.227 C 
ATOM     22  O   LEU A   7      43.153  27.559  26.506  0.00  0.00    -0.286 OA
ENDBRANCH  20  21
BRANCH  20  23
ATOM     23  CB  LEU A   7      40.859  28.607  24.909  0.00  0.00    +0.028 C 
BRANCH  23  24
ATOM     24  CG  LEU A   7      39.664  28.835  23.981  0.00  0.00    +0.002 C 
ATOM     25  CD2 LEU A   7      38.677  29.731  24.715  0.00  0.00    +0.000 C 
ATOM     26  CD1 LEU A   7      40.075  29.488  22.658  0.00  0.00    +0.000 C 
ENDBRANCH  23  24
ENDBRANCH  20  23
ENDBRANCH  17  20
ENDBRANCH  15  16
BRANCH  15  27
ATOM     27  CB  VAL A   6      42.769  23.840  21.992  0.00  0.00    +0.027 C 
ATOM     28  CG2 VAL A   6      42.595  22.309  21.864  0.00  0.00    +0.002 C 
ATOM     29  CG1 VAL A   6      41.848  24.631  21.003  0.00  0.00    +0.002 C 
ENDBRANCH  15  27
ENDBRANCH  13  15
ENDBRANCH  10  11
BRANCH  10  30
ATOM     30  CB  THR A   5      39.346  24.233  26.467  0.00  0.00    +0.137 C 
ATOM     31  CG2 THR A   5      40.396  24.289  27.566  0.00  0.00    +0.034 C 
BRANCH  30  32
ATOM     32  OG1 THR A   5      39.387  25.466  25.744  0.00  0.00    -0.382 OA
ATOM     33  HG1 THR A   5      39.220  26.218  26.366  0.00  0.00    +0.210 HD
ENDBRANCH  30  32
ENDBRANCH  10  30
ENDBRANCH   7  10
ENDBRANCH   5   6
BRANCH   5  34
ATOM     34  CB  HIS A   4      37.049  20.363  28.398  0.00  0.00    +0.076 C 
BRANCH  34  35
ATOM     35  CG  HIS A   4      36.617  19.158  29.163  0.00  0.00    +0.082 A 
ATOM     36  CD2 HIS A   4      37.188  18.512  30.213  0.00  0.00    +0.115 A 
ATOM     37  NE2 HIS A   4      36.345  17.481  30.558  0.00  0.00    -0.221 NA
ATOM     38  CE1 HIS A   4      35.292  17.500  29.757  0.00  0.00    +0.199 A 
ATOM     39  ND1 HIS A   4      35.436  18.499  28.903  0.00  0.00    -0.227 NA
ENDBRANCH  34  35
ENDBRANCH   5  34
ENDBRANCH   2   5
BRANCH   1  40
ATOM     40  CA  ASN A   3      40.691  17.604  27.933  0.00  0.00    +0.158 C 
BRANCH  40  43
ATOM     41  C   THR A   2      40.074  15.752  29.419  0.00  0.00    +0.243 C 
ATOM     42  O   THR A   2      39.901  16.511  30.381  0.00  0.00    -0.273 OA
ATOM     43  N   ASN A   3      40.469  16.186  28.221  0.00  0.00    -0.297 N 
ATOM     44  H   ASN A   3      40.625  15.491  27.463  0.00  0.00    +0.150 HD
BRANCH  41  45
ATOM     45  CA  THR A   2      39.821  14.249  29.556  0.00  0.00    +0.176 C 
BRANCH  45  47
ATOM     46  C   TYR A   1      41.706  12.841  30.334  0.00  0.00    +0.239 C 
ATOM     47  N   THR A   2      40.686  13.674  30.581  0.00  0.00    -0.295 N 
ATOM     48  H   THR A   2      40.498  13.928  31.572  0.00  0.00    +0.150 HD
ATOM     49  O   TYR A   1      41.979  12.410  29.221  0.00  0.00    -0.274 OA
BRANCH  46  50
ATOM     50  CA  TYR A   1      42.543  12.439  31.548  0.00  0.00    +0.149 C 
BRANCH  50  51
ATOM     51  N   TYR A   1      42.754  11.003  31.653  0.00  0.00    -0.238 NA
ATOM     52  H   TYR A   1      43.169  10.494  30.847  0.00  0.00    +0.142 HD
ENDBRANCH  50  51
BRANCH  50  53
ATOM     53  CB  TYR A   1      43.912  13.152  31.579  0.00  0.00    +0.053 C 
BRANCH  53  54
ATOM     54  CG  TYR A   1      43.939  14.575  31.052  0.00  0.00    -0.020 A 
ATOM     55  CD2 TYR A   1      43.167  15.573  31.641  0.00  0.00    -0.001 A 
ATOM     56  CE2 TYR A   1      43.189  16.884  31.162  0.00  0.00    +0.036 A 
ATOM     57  CZ  TYR A   1      44.017  17.227  30.096  0.00  0.00    +0.134 A 
ATOM     58  CE1 TYR A   1      44.808  16.254  29.503  0.00  0.00    +0.036 A 
ATOM     59  CD1 TYR A   1      44.767  14.925  29.994  0.00  0.00    -0.001 A 
BRANCH  57  60
ATOM     60  OH  TYR A   1      44.032  18.535  29.630  0.00  0.00    -0.506 OA
ATOM     61  HH  TYR A   1      43.410  19.084  30.170  0.00  0.00    +0.292 HD
ENDBRANCH  57  60
ENDBRANCH  53  54
ENDBRANCH  50  53
ENDBRANCH  46  50
ENDBRANCH  45  47
BRANCH  45  62
ATOM     62  CB  THR A   2      38.329  14.004  29.901  0.00  0.00    +0.137 C 
ATOM     63  CG2 THR A   2      37.388  14.648  28.882  0.00  0.00    +0.034 C 
BRANCH  62  64
ATOM     64  OG1 THR A   2      38.068  12.598  29.945  0.00  0.00    -0.382 OA
ATOM     65  HG1 THR A   2      38.271  12.198  29.062  0.00  0.00    +0.210 HD
ENDBRANCH  62  64
ENDBRANCH  45  62
ENDBRANCH  41  45
ENDBRANCH  40  43
BRANCH  40  66
ATOM     66  CB  ASN A   3      41.940  17.784  27.044  0.00  0.00    +0.114 C 
BRANCH  66  67
ATOM     67  CG  ASN A   3      42.069  19.181  26.461  0.00  0.00    +0.222 C 
ATOM     68  ND2 ASN A   3      42.937  20.006  27.048  0.00  0.00    -0.329 N 
ATOM     69 HD21 ASN A   3      43.464  19.694  27.888  0.00  0.00    +0.145 HD
ATOM     70 HD22 ASN A   3      43.086  20.961  26.666  0.00  0.00    +0.145 HD
ATOM     71  OD1 ASN A   3      41.422  19.502  25.467  0.00  0.00    -0.275 OA
ENDBRANCH  66  67
ENDBRANCH  40  66
ENDBRANCH   1  40
TORSDOF 28
REMARK  Name = ../refined-set-2016/3syr/3syr_pocket.pdb
REMARK  256 active torsions:
REMARK  status: ('A' for Active; 'I' for Inactive)
REMARK    1  A    between atoms: _1  and  _3
REMARK    2  A    between atoms: _3  and  _4
REMARK    3  A    between atoms: _3  and  _6
REMARK    4  A    between atoms: _6  and  _7
REMARK    5  A    between atoms: _12  and  _13
REMARK    6  A    between atoms: _15  and  _17
REMARK    7  A    between atoms: _17  and  _18
REMARK    8  A    between atoms: _17  and  _20
REMARK    9  A    between atoms: _20  and  _21
REMARK   10  A    between atoms: _21  and  _22
REMARK   11  A    between atoms: _25  and  _27
REMARK   12  A    between atoms: _27  and  _28
REMARK   13  A    between atoms: _27  and  _30
REMARK   14  A    between atoms: _30  and  _31
REMARK   15  A    between atoms: _36  and  _37
REMARK   16  A    between atoms: _39  and  _41
REMARK   17  A    between atoms: _41  and  _42
REMARK   18  A    between atoms: _41  and  _44
REMARK   19  A    between atoms: _44  and  _45
REMARK   20  A    between atoms: _50  and  _52
REMARK   21  A    between atoms: _52  and  _53
REMARK   22  A    between atoms: _55  and  _57
REMARK   23  A    between atoms: _57  and  _58
REMARK   24  A    between atoms: _60  and  _62
REMARK   25  A    between atoms: _62  and  _63
REMARK   26  A    between atoms: _62  and  _65
REMARK   27  A    between atoms: _65  and  _66
REMARK   28  A    between atoms: _69  and  _71
REMARK   29  A    between atoms: _71  and  _72
REMARK   30  A    between atoms: _74  and  _76
REMARK   31  A    between atoms: _76  and  _77
REMARK   32  A    between atoms: _76  and  _79
REMARK   33  A    between atoms: _79  and  _80
REMARK   34  A    between atoms: _80  and  _81
REMARK   35  A    between atoms: _81  and  _82
REMARK   36  A    between atoms: _91  and  _93
REMARK   37  A    between atoms: _93  and  _94
REMARK   38  A    between atoms: _93  and  _96
REMARK   39  A    between atoms: _96  and  _97
REMARK   40  A    between atoms: _100  and  _102
REMARK   41  A    between atoms: _102  and  _103
REMARK   42  A    between atoms: _106  and  _108
REMARK   43  A    between atoms: _108  and  _109
REMARK   44  A    between atoms: _108  and  _111
REMARK   45  A    between atoms: _111  and  _112
REMARK   46  A    between atoms: _118  and  _120
REMARK   47  A    between atoms: _120  and  _121
REMARK   48  A    between atoms: _120  and  _123
REMARK   49  A    between atoms: _123  and  _124
REMARK   50  A    between atoms: _129  and  _131
REMARK   51  A    between atoms: _131  and  _132
REMARK   52  A    between atoms: _131  and  _134
REMARK   53  A    between atoms: _134  and  _135
REMARK   54  A    between atoms: _138  and  _140
REMARK   55  A    between atoms: _140  and  _141
REMARK   56  A    between atoms: _140  and  _143
REMARK   57  A    between atoms: _143  and  _144
REMARK   58  A    between atoms: _149  and  _151
REMARK   59  A    between atoms: _151  and  _152
REMARK   60  A    between atoms: _151  and  _154
REMARK   61  A    between atoms: _154  and  _155
REMARK   62  A    between atoms: _161  and  _163
REMARK   63  A    between atoms: _163  and  _164
REMARK   64  A    between atoms: _163  and  _166
REMARK   65  A    between atoms: _166  and  _167
REMARK   66  A    between atoms: _173  and  _175
REMARK   67  A    between atoms: _175  and  _176
REMARK   68  A    between atoms: _175  and  _178
REMARK   69  A    between atoms: _178  and  _179
REMARK   70  A    between atoms: _179  and  _180
REMARK   71  A    between atoms: _180  and  _181
REMARK   72  A    between atoms: _190  and  _192
REMARK   73  A    between atoms: _192  and  _193
REMARK   74  A    between atoms: _192  and  _195
REMARK   75  A    between atoms: _195  and  _196
REMARK   76  A    between atoms: _201  and  _203
REMARK   77  A    between atoms: _203  and  _204
REMARK   78  A    between atoms: _203  and  _206
REMARK   79  A    between atoms: _206  and  _207
REMARK   80  A    between atoms: _210  and  _212
REMARK   81  A    between atoms: _212  and  _213
REMARK   82  A    between atoms: _212  and  _215
REMARK   83  A    between atoms: _215  and  _216
REMARK   84  A    between atoms: _219  and  _221
REMARK   85  A    between atoms: _221  and  _222
REMARK   86  A    between atoms: _221  and  _224
REMARK   87  A    between atoms: _224  and  _225
REMARK   88  A    between atoms: _230  and  _232
REMARK   89  A    between atoms: _232  and  _233
REMARK   90  A    between atoms: _232  and  _235
REMARK   91  A    between atoms: _235  and  _236
REMARK   92  A    between atoms: _241  and  _242
REMARK   93  A    between atoms: _244  and  _246
REMARK   94  A    between atoms: _246  and  _247
REMARK   95  A    between atoms: _246  and  _249
REMARK   96  A    between atoms: _249  and  _250
REMARK   97  A    between atoms: _253  and  _255
REMARK   98  A    between atoms: _255  and  _256
REMARK   99  A    between atoms: _255  and  _258
REMARK  100  A    between atoms: _258  and  _259
REMARK  101  A    between atoms: _264  and  _266
REMARK  102  A    between atoms: _266  and  _267
REMARK  103  A    between atoms: _266  and  _269
REMARK  104  A    between atoms: _269  and  _270
REMARK  105  A    between atoms: _275  and  _277
REMARK  106  A    between atoms: _277  and  _278
REMARK  107  A    between atoms: _277  and  _280
REMARK  108  A    between atoms: _280  and  _281
REMARK  109  A    between atoms: _284  and  _286
REMARK  110  A    between atoms: _286  and  _287
REMARK  111  A    between atoms: _286  and  _289
REMARK  112  A    between atoms: _292  and  _294
REMARK  113  A    between atoms: _294  and  _295
REMARK  114  A    between atoms: _294  and  _297
REMARK  115  A    between atoms: _297  and  _298
REMARK  116  A    between atoms: _301  and  _303
REMARK  117  A    between atoms: _303  and  _304
REMARK  118  A    between atoms: _307  and  _309
REMARK  119  A    between atoms: _309  and  _310
REMARK  120  A    between atoms: _309  and  _312
REMARK  121  A    between atoms: _312  and  _313
REMARK  122  A    between atoms: _316  and  _318
REMARK  123  A    between atoms: _318  and  _319
REMARK  124  A    between atoms: _318  and  _321
REMARK  125  A    between atoms: _321  and  _322
REMARK  126  A    between atoms: _322  and  _323
REMARK  127  A    between atoms: _326  and  _328
REMARK  128  A    between atoms: _328  and  _329
REMARK  129  A    between atoms: _328  and  _331
REMARK  130  A    between atoms: _331  and  _332
REMARK  131  A    between atoms: _337  and  _339
REMARK  132  A    between atoms: _339  and  _340
REMARK  133  A    between atoms: _342  and  _344
REMARK  134  A    between atoms: _344  and  _345
REMARK  135  A    between atoms: _344  and  _347
REMARK  136  A    between atoms: _350  and  _352
REMARK  137  A    between atoms: _352  and  _353
REMARK  138  A    between atoms: _356  and  _358
REMARK  139  A    between atoms: _358  and  _359
REMARK  140  A    between atoms: _358  and  _361
REMARK  141  A    between atoms: _361  and  _362
REMARK  142  A    between atoms: _367  and  _369
REMARK  143  A    between atoms: _369  and  _370
REMARK  144  A    between atoms: _369  and  _372
REMARK  145  A    between atoms: _372  and  _373
REMARK  146  A    between atoms: _373  and  _374
REMARK  147  A    between atoms: _374  and  _375
REMARK  148  A    between atoms: _375  and  _376
REMARK  149  A    between atoms: _380  and  _382
REMARK  150  A    between atoms: _382  and  _383
REMARK  151  A    between atoms: _382  and  _385
REMARK  152  A    between atoms: _385  and  _386
REMARK  153  A    between atoms: _389  and  _391
REMARK  154  A    between atoms: _391  and  _392
REMARK  155  A    between atoms: _391  and  _394
REMARK  156  A    between atoms: _394  and  _395
REMARK  157  A    between atoms: _400  and  _402
REMARK  158  A    between atoms: _402  and  _403
REMARK  159  A    between atoms: _405  and  _407
REMARK  160  A    between atoms: _407  and  _408
REMARK  161  A    between atoms: _407  and  _410
REMARK  162  A    between atoms: _410  and  _411
REMARK  163  A    between atoms: _414  and  _416
REMARK  164  A    between atoms: _416  and  _417
REMARK  165  A    between atoms: _416  and  _419
REMARK  166  A    between atoms: _419  and  _420
REMARK  167  A    between atoms: _420  and  _421
REMARK  168  A    between atoms: _421  and  _422
REMARK  169  A    between atoms: _422  and  _423
REMARK  170  A    between atoms: _427  and  _429
REMARK  171  A    between atoms: _429  and  _430
REMARK  172  A    between atoms: _429  and  _432
REMARK  173  A    between atoms: _432  and  _433
REMARK  174  A    between atoms: _433  and  _434
REMARK  175  A    between atoms: _434  and  _435
REMARK  176  A    between atoms: _444  and  _446
REMARK  177  A    between atoms: _446  and  _447
REMARK  178  A    between atoms: _446  and  _449
REMARK  179  A    between atoms: _449  and  _450
REMARK  180  A    between atoms: _455  and  _457
REMARK  181  A    between atoms: _457  and  _458
REMARK  182  A    between atoms: _457  and  _460
REMARK  183  A    between atoms: _460  and  _461
REMARK  184  A    between atoms: _466  and  _467
REMARK  185  A    between atoms: _469  and  _471
REMARK  186  A    between atoms: _471  and  _472
REMARK  187  A    between atoms: _471  and  _474
REMARK  188  A    between atoms: _474  and  _475
REMARK  189  A    between atoms: _475  and  _476
REMARK  190  A    between atoms: _476  and  _477
REMARK  191  A    between atoms: _477  and  _478
REMARK  192  A    between atoms: _482  and  _484
REMARK  193  A    between atoms: _484  and  _485
REMARK  194  A    between atoms: _484  and  _487
REMARK  195  A    between atoms: _487  and  _488
REMARK  196  A    between atoms: _490  and  _492
REMARK  197  A    between atoms: _492  and  _493
REMARK  198  A    between atoms: _492  and  _495
REMARK  199  A    between atoms: _495  and  _496
REMARK  200  A    between atoms: _499  and  _501
REMARK  201  A    between atoms: _501  and  _502
REMARK  202  A    between atoms: _501  and  _504
REMARK  203  A    between atoms: _504  and  _505
REMARK  204  A    between atoms: _505  and  _506
REMARK  205  A    between atoms: _509  and  _511
REMARK  206  A    between atoms: _511  and  _512
REMARK  207  A    between atoms: _515  and  _517
REMARK  208  A    between atoms: _517  and  _518
REMARK  209  A    between atoms: _517  and  _520
REMARK  210  A    between atoms: _520  and  _521
REMARK  211  A    between atoms: _523  and  _525
REMARK  212  A    between atoms: _525  and  _526
REMARK  213  A    between atoms: _528  and  _530
REMARK  214  A    between atoms: _530  and  _531
REMARK  215  A    between atoms: _530  and  _533
REMARK  216  A    between atoms: _533  and  _534
REMARK  217  A    between atoms: _537  and  _539
REMARK  218  A    between atoms: _539  and  _540
REMARK  219  A    between atoms: _542  and  _544
REMARK  220  A    between atoms: _544  and  _545
REMARK  221  A    between atoms: _544  and  _547
REMARK  222  A    between atoms: _547  and  _548
REMARK  223  A    between atoms: _553  and  _555
REMARK  224  A    between atoms: _555  and  _556
REMARK  225  A    between atoms: _555  and  _558
REMARK  226  A    between atoms: _558  and  _559
REMARK  227  A    between atoms: _559  and  _560
REMARK  228  A    between atoms: _567  and  _568
REMARK  229  A    between atoms: _568  and  _584
REMARK  230  A    between atoms: _569  and  _571
REMARK  231  A    between atoms: _571  and  _572
REMARK  232  A    between atoms: _572  and  _573
REMARK  233  A    between atoms: _577  and  _579
REMARK  234  A    between atoms: _579  and  _580
REMARK  235  A    between atoms: _579  and  _587
REMARK  236  A    between atoms: _580  and  _581
REMARK  237  A    between atoms: _581  and  _582
REMARK  238  A    between atoms: _582  and  _583
REMARK  239  A    between atoms: _583  and  _584
REMARK  240  A    between atoms: _589  and  _591
REMARK  241  A    between atoms: _591  and  _592
REMARK  242  A    between atoms: _591  and  _594
REMARK  243  A    between atoms: _594  and  _595
REMARK  244  A    between atoms: _598  and  _600
REMARK  245  A    between atoms: _600  and  _601
REMARK  246  A    between atoms: _603  and  _605
REMARK  247  A    between atoms: _605  and  _606
REMARK  248  A    between atoms: _609  and  _611
REMARK  249  A    between atoms: _611  and  _612
REMARK  250  A    between atoms: _611  and  _614
REMARK  251  A    between atoms: _614  and  _615
REMARK  252  A    between atoms: _618  and  _620
REMARK  253  A    between atoms: _620  and  _621
REMARK  254  A    between atoms: _620  and  _623
REMARK  255  A    between atoms: _623  and  _624
REMARK  256  A    between atoms: _629  and  _630
REMARK                            x       y       z     vdW  Elec       q    Type
REMARK                         _______ _______ _______ _____ _____    ______ ____
ROOT
ATOM      1  CA  LEU A   2      44.845  26.039  30.683  0.00  0.00    +0.149 C 
ENDROOT
BRANCH   1   4
ATOM      2  C   ALA A   1      42.736  27.289  30.547  0.00  0.00    +0.238 C 
ATOM      3  O   ALA A   1      42.253  26.708  31.514  0.00  0.00    -0.274 OA
ATOM      4  N   LEU A   2      43.987  27.081  30.111  0.00  0.00    -0.297 N 
ATOM      5  H   LEU A   2      44.360  27.677  29.344  0.00  0.00    +0.150 HD
BRANCH   2   6
ATOM      6  CA  ALA A   1      41.899  28.325  29.805  0.00  0.00    +0.145 C 
ATOM      7  CB  ALA A   1      40.829  27.647  28.969  0.00  0.00    +0.028 C 
BRANCH   6   8
ATOM      8  N   ALA A   1      42.710  29.233  28.994  0.00  0.00    -0.238 NA
ATOM      9  H   ALA A   1      42.903  28.990  28.001  0.00  0.00    +0.142 HD
ENDBRANCH   6   8
ENDBRANCH   2   6
ENDBRANCH   1   4
BRANCH   1  10
ATOM     10  C   LEU A   2      45.422  26.408  32.049  0.00  0.00    +0.241 C 
ATOM     11  N   GLU A   3      45.453  25.449  32.961  0.00  0.00    -0.298 N 
ATOM     12  H   GLU A   3      45.156  24.485  32.707  0.00  0.00    +0.150 HD
ATOM     13  O   LEU A   2      45.842  27.530  32.275  0.00  0.00    -0.273 OA
BRANCH  11  14
ATOM     14  CA  GLU A   3      45.901  25.734  34.322  0.00  0.00    +0.137 C 
BRANCH  14  15
ATOM     15  C   GLU A   3      47.401  25.660  34.360  0.00  0.00    +0.227 C 
ATOM     16  O   GLU A   3      47.981  24.671  33.941  0.00  0.00    -0.286 OA
ENDBRANCH  14  15
BRANCH  14  17
ATOM     17  CB  GLU A   3      45.329  24.732  35.310  0.00  0.00    +0.039 C 
BRANCH  17  18
ATOM     18  CG  GLU A   3      43.836  24.736  35.401  0.00  0.00    +0.116 C 
BRANCH  18  19
ATOM     19  CD  GLU A   3      43.374  23.941  36.580  0.00  0.00    +0.365 C 
ATOM     20  OE2 GLU A   3      42.961  24.575  37.564  0.00  0.00    -0.246 OA
ATOM     21  OE1 GLU A   3      43.455  22.694  36.540  0.00  0.00    -0.246 OA
ENDBRANCH  18  19
ENDBRANCH  17  18
ENDBRANCH  14  17
ENDBRANCH  11  14
ENDBRANCH   1  10
BRANCH   1  22
ATOM     22  CB  LEU A   2      45.986  25.686  29.732  0.00  0.00    +0.029 C 
BRANCH  22  23
ATOM     23  CG  LEU A   2      45.697  25.133  28.333  0.00  0.00    +0.002 C 
ATOM     24  CD2 LEU A   2      44.606  24.041  28.294  0.00  0.00    +0.000 C 
ATOM     25  CD1 LEU A   2      47.010  24.601  27.783  0.00  0.00    +0.000 C 
ENDBRANCH  22  23
ENDBRANCH   1  22
TORSDOF 11
REMARK  Name = ../refined-set-2016/3syr/3syr_pocket.pdb
REMARK  256 active torsions:
REMARK  status: ('A' for Active; 'I' for Inactive)
REMARK    1  A    between atoms: _1  and  _3
REMARK    2  A    between atoms: _3  and  _4
REMARK    3  A    between atoms: _3  and  _6
REMARK    4  A    between atoms: _6  and  _7
REMARK    5  A    between atoms: _12  and  _13
REMARK    6  A    between atoms: _15  and  _17
REMARK    7  A    between atoms: _17  and  _18
REMARK    8  A    between atoms: _17  and  _20
REMARK    9  A    between atoms: _20  and  _21
REMARK   10  A    between atoms: _21  and  _22
REMARK   11  A    between atoms: _25  and  _27
REMARK   12  A    between atoms: _27  and  _28
REMARK   13  A    between atoms: _27  and  _30
REMARK   14  A    between atoms: _30  and  _31
REMARK   15  A    between atoms: _36  and  _37
REMARK   16  A    between atoms: _39  and  _41
REMARK   17  A    between atoms: _41  and  _42
REMARK   18  A    between atoms: _41  and  _44
REMARK   19  A    between atoms: _44  and  _45
REMARK   20  A    between atoms: _50  and  _52
REMARK   21  A    between atoms: _52  and  _53
REMARK   22  A    between atoms: _55  and  _57
REMARK   23  A    between atoms: _57  and  _58
REMARK   24  A    between atoms: _60  and  _62
REMARK   25  A    between atoms: _62  and  _63
REMARK   26  A    between atoms: _62  and  _65
REMARK   27  A    between atoms: _65  and  _66
REMARK   28  A    between atoms: _69  and  _71
REMARK   29  A    between atoms: _71  and  _72
REMARK   30  A    between atoms: _74  and  _76
REMARK   31  A    between atoms: _76  and  _77
REMARK   32  A    between atoms: _76  and  _79
REMARK   33  A    between atoms: _79  and  _80
REMARK   34  A    between atoms: _80  and  _81
REMARK   35  A    between atoms: _81  and  _82
REMARK   36  A    between atoms: _91  and  _93
REMARK   37  A    between atoms: _93  and  _94
REMARK   38  A    between atoms: _93  and  _96
REMARK   39  A    between atoms: _96  and  _97
REMARK   40  A    between atoms: _100  and  _102
REMARK   41  A    between atoms: _102  and  _103
REMARK   42  A    between atoms: _106  and  _108
REMARK   43  A    between atoms: _108  and  _109
REMARK   44  A    between atoms: _108  and  _111
REMARK   45  A    between atoms: _111  and  _112
REMARK   46  A    between atoms: _118  and  _120
REMARK   47  A    between atoms: _120  and  _121
REMARK   48  A    between atoms: _120  and  _123
REMARK   49  A    between atoms: _123  and  _124
REMARK   50  A    between atoms: _129  and  _131
REMARK   51  A    between atoms: _131  and  _132
REMARK   52  A    between atoms: _131  and  _134
REMARK   53  A    between atoms: _134  and  _135
REMARK   54  A    between atoms: _138  and  _140
REMARK   55  A    between atoms: _140  and  _141
REMARK   56  A    between atoms: _140  and  _143
REMARK   57  A    between atoms: _143  and  _144
REMARK   58  A    between atoms: _149  and  _151
REMARK   59  A    between atoms: _151  and  _152
REMARK   60  A    between atoms: _151  and  _154
REMARK   61  A    between atoms: _154  and  _155
REMARK   62  A    between atoms: _161  and  _163
REMARK   63  A    between atoms: _163  and  _164
REMARK   64  A    between atoms: _163  and  _166
REMARK   65  A    between atoms: _166  and  _167
REMARK   66  A    between atoms: _173  and  _175
REMARK   67  A    between atoms: _175  and  _176
REMARK   68  A    between atoms: _175  and  _178
REMARK   69  A    between atoms: _178  and  _179
REMARK   70  A    between atoms: _179  and  _180
REMARK   71  A    between atoms: _180  and  _181
REMARK   72  A    between atoms: _190  and  _192
REMARK   73  A    between atoms: _192  and  _193
REMARK   74  A    between atoms: _192  and  _195
REMARK   75  A    between atoms: _195  and  _196
REMARK   76  A    between atoms: _201  and  _203
REMARK   77  A    between atoms: _203  and  _204
REMARK   78  A    between atoms: _203  and  _206
REMARK   79  A    between atoms: _206  and  _207
REMARK   80  A    between atoms: _210  and  _212
REMARK   81  A    between atoms: _212  and  _213
REMARK   82  A    between atoms: _212  and  _215
REMARK   83  A    between atoms: _215  and  _216
REMARK   84  A    between atoms: _219  and  _221
REMARK   85  A    between atoms: _221  and  _222
REMARK   86  A    between atoms: _221  and  _224
REMARK   87  A    between atoms: _224  and  _225
REMARK   88  A    between atoms: _230  and  _232
REMARK   89  A    between atoms: _232  and  _233
REMARK   90  A    between atoms: _232  and  _235
REMARK   91  A    between atoms: _235  and  _236
REMARK   92  A    between atoms: _241  and  _242
REMARK   93  A    between atoms: _244  and  _246
REMARK   94  A    between atoms: _246  and  _247
REMARK   95  A    between atoms: _246  and  _249
REMARK   96  A    between atoms: _249  and  _250
REMARK   97  A    between atoms: _253  and  _255
REMARK   98  A    between atoms: _255  and  _256
REMARK   99  A    between atoms: _255  and  _258
REMARK  100  A    between atoms: _258  and  _259
REMARK  101  A    between atoms: _264  and  _266
REMARK  102  A    between atoms: _266  and  _267
REMARK  103  A    between atoms: _266  and  _269
REMARK  104  A    between atoms: _269  and  _270
REMARK  105  A    between atoms: _275  and  _277
REMARK  106  A    between atoms: _277  and  _278
REMARK  107  A    between atoms: _277  and  _280
REMARK  108  A    between atoms: _280  and  _281
REMARK  109  A    between atoms: _284  and  _286
REMARK  110  A    between atoms: _286  and  _287
REMARK  111  A    between atoms: _286  and  _289
REMARK  112  A    between atoms: _292  and  _294
REMARK  113  A    between atoms: _294  and  _295
REMARK  114  A    between atoms: _294  and  _297
REMARK  115  A    between atoms: _297  and  _298
REMARK  116  A    between atoms: _301  and  _303
REMARK  117  A    between atoms: _303  and  _304
REMARK  118  A    between atoms: _307  and  _309
REMARK  119  A    between atoms: _309  and  _310
REMARK  120  A    between atoms: _309  and  _312
REMARK  121  A    between atoms: _312  and  _313
REMARK  122  A    between atoms: _316  and  _318
REMARK  123  A    between atoms: _318  and  _319
REMARK  124  A    between atoms: _318  and  _321
REMARK  125  A    between atoms: _321  and  _322
REMARK  126  A    between atoms: _322  and  _323
REMARK  127  A    between atoms: _326  and  _328
REMARK  128  A    between atoms: _328  and  _329
REMARK  129  A    between atoms: _328  and  _331
REMARK  130  A    between atoms: _331  and  _332
REMARK  131  A    between atoms: _337  and  _339
REMARK  132  A    between atoms: _339  and  _340
REMARK  133  A    between atoms: _342  and  _344
REMARK  134  A    between atoms: _344  and  _345
REMARK  135  A    between atoms: _344  and  _347
REMARK  136  A    between atoms: _350  and  _352
REMARK  137  A    between atoms: _352  and  _353
REMARK  138  A    between atoms: _356  and  _358
REMARK  139  A    between atoms: _358  and  _359
REMARK  140  A    between atoms: _358  and  _361
REMARK  141  A    between atoms: _361  and  _362
REMARK  142  A    between atoms: _367  and  _369
REMARK  143  A    between atoms: _369  and  _370
REMARK  144  A    between atoms: _369  and  _372
REMARK  145  A    between atoms: _372  and  _373
REMARK  146  A    between atoms: _373  and  _374
REMARK  147  A    between atoms: _374  and  _375
REMARK  148  A    between atoms: _375  and  _376
REMARK  149  A    between atoms: _380  and  _382
REMARK  150  A    between atoms: _382  and  _383
REMARK  151  A    between atoms: _382  and  _385
REMARK  152  A    between atoms: _385  and  _386
REMARK  153  A    between atoms: _389  and  _391
REMARK  154  A    between atoms: _391  and  _392
REMARK  155  A    between atoms: _391  and  _394
REMARK  156  A    between atoms: _394  and  _395
REMARK  157  A    between atoms: _400  and  _402
REMARK  158  A    between atoms: _402  and  _403
REMARK  159  A    between atoms: _405  and  _407
REMARK  160  A    between atoms: _407  and  _408
REMARK  161  A    between atoms: _407  and  _410
REMARK  162  A    between atoms: _410  and  _411
REMARK  163  A    between atoms: _414  and  _416
REMARK  164  A    between atoms: _416  and  _417
REMARK  165  A    between atoms: _416  and  _419
REMARK  166  A    between atoms: _419  and  _420
REMARK  167  A    between atoms: _420  and  _421
REMARK  168  A    between atoms: _421  and  _422
REMARK  169  A    between atoms: _422  and  _423
REMARK  170  A    between atoms: _427  and  _429
REMARK  171  A    between atoms: _429  and  _430
REMARK  172  A    between atoms: _429  and  _432
REMARK  173  A    between atoms: _432  and  _433
REMARK  174  A    between atoms: _433  and  _434
REMARK  175  A    between atoms: _434  and  _435
REMARK  176  A    between atoms: _444  and  _446
REMARK  177  A    between atoms: _446  and  _447
REMARK  178  A    between atoms: _446  and  _449
REMARK  179  A    between atoms: _449  and  _450
REMARK  180  A    between atoms: _455  and  _457
REMARK  181  A    between atoms: _457  and  _458
REMARK  182  A    between atoms: _457  and  _460
REMARK  183  A    between atoms: _460  and  _461
REMARK  184  A    between atoms: _466  and  _467
REMARK  185  A    between atoms: _469  and  _471
REMARK  186  A    between atoms: _471  and  _472
REMARK  187  A    between atoms: _471  and  _474
REMARK  188  A    between atoms: _474  and  _475
REMARK  189  A    between atoms: _475  and  _476
REMARK  190  A    between atoms: _476  and  _477
REMARK  191  A    between atoms: _477  and  _478
REMARK  192  A    between atoms: _482  and  _484
REMARK  193  A    between atoms: _484  and  _485
REMARK  194  A    between atoms: _484  and  _487
REMARK  195  A    between atoms: _487  and  _488
REMARK  196  A    between atoms: _490  and  _492
REMARK  197  A    between atoms: _492  and  _493
REMARK  198  A    between atoms: _492  and  _495
REMARK  199  A    between atoms: _495  and  _496
REMARK  200  A    between atoms: _499  and  _501
REMARK  201  A    between atoms: _501  and  _502
REMARK  202  A    between atoms: _501  and  _504
REMARK  203  A    between atoms: _504  and  _505
REMARK  204  A    between atoms: _505  and  _506
REMARK  205  A    between atoms: _509  and  _511
REMARK  206  A    between atoms: _511  and  _512
REMARK  207  A    between atoms: _515  and  _517
REMARK  208  A    between atoms: _517  and  _518
REMARK  209  A    between atoms: _517  and  _520
REMARK  210  A    between atoms: _520  and  _521
REMARK  211  A    between atoms: _523  and  _525
REMARK  212  A    between atoms: _525  and  _526
REMARK  213  A    between atoms: _528  and  _530
REMARK  214  A    between atoms: _530  and  _531
REMARK  215  A    between atoms: _530  and  _533
REMARK  216  A    between atoms: _533  and  _534
REMARK  217  A    between atoms: _537  and  _539
REMARK  218  A    between atoms: _539  and  _540
REMARK  219  A    between atoms: _542  and  _544
REMARK  220  A    between atoms: _544  and  _545
REMARK  221  A    between atoms: _544  and  _547
REMARK  222  A    between atoms: _547  and  _548
REMARK  223  A    between atoms: _553  and  _555
REMARK  224  A    between atoms: _555  and  _556
REMARK  225  A    between atoms: _555  and  _558
REMARK  226  A    between atoms: _558  and  _559
REMARK  227  A    between atoms: _559  and  _560
REMARK  228  A    between atoms: _567  and  _568
REMARK  229  A    between atoms: _568  and  _584
REMARK  230  A    between atoms: _569  and  _571
REMARK  231  A    between atoms: _571  and  _572
REMARK  232  A    between atoms: _572  and  _573
REMARK  233  A    between atoms: _577  and  _579
REMARK  234  A    between atoms: _579  and  _580
REMARK  235  A    between atoms: _579  and  _587
REMARK  236  A    between atoms: _580  and  _581
REMARK  237  A    between atoms: _581  and  _582
REMARK  238  A    between atoms: _582  and  _583
REMARK  239  A    between atoms: _583  and  _584
REMARK  240  A    between atoms: _589  and  _591
REMARK  241  A    between atoms: _591  and  _592
REMARK  242  A    between atoms: _591  and  _594
REMARK  243  A    between atoms: _594  and  _595
REMARK  244  A    between atoms: _598  and  _600
REMARK  245  A    between atoms: _600  and  _601
REMARK  246  A    between atoms: _603  and  _605
REMARK  247  A    between atoms: _605  and  _606
REMARK  248  A    between atoms: _609  and  _611
REMARK  249  A    between atoms: _611  and  _612
REMARK  250  A    between atoms: _611  and  _614
REMARK  251  A    between atoms: _614  and  _615
REMARK  252  A    between atoms: _618  and  _620
REMARK  253  A    between atoms: _620  and  _621
REMARK  254  A    between atoms: _620  and  _623
REMARK  255  A    between atoms: _623  and  _624
REMARK  256  A    between atoms: _629  and  _630
REMARK                            x       y       z     vdW  Elec       q    Type
REMARK                         _______ _______ _______ _____ _____    ______ ____
ROOT
ATOM      1  C   GLY A   2      37.778  14.471  23.478  0.00  0.00    +0.243 C 
ATOM      2  O   GLY A   2      37.410  13.302  23.673  0.00  0.00    -0.273 OA
ATOM      3  N   VAL A   3      36.933  15.462  23.223  0.00  0.00    -0.297 N 
ATOM      4  H   VAL A   3      37.300  16.366  22.862  0.00  0.00    +0.150 HD
ENDROOT
BRANCH   1   5
ATOM      5  CA  GLY A   2      39.240  14.848  23.525  0.00  0.00    +0.176 C 
BRANCH   5   8
ATOM      6  C   ASN A   1      40.322  13.350  25.093  0.00  0.00    +0.239 C 
ATOM      7  O   ASN A   1      40.264  14.138  26.021  0.00  0.00    -0.274 OA
ATOM      8  N   GLY A   2      39.975  13.656  23.855  0.00  0.00    -0.296 N 
ATOM      9  H   GLY A   2      40.244  13.008  23.087  0.00  0.00    +0.150 HD
BRANCH   6  10
ATOM     10  CA  ASN A   1      40.829  11.946  25.302  0.00  0.00    +0.154 C 
BRANCH  10  11
ATOM     11  N   ASN A   1      41.858  11.846  26.332  0.00  0.00    -0.238 NA
ATOM     12  H   ASN A   1      41.710  12.285  27.263  0.00  0.00    +0.142 HD
ENDBRANCH  10  11
BRANCH  10  13
ATOM     13  CB  ASN A   1      39.652  10.979  25.562  0.00  0.00    +0.111 C 
BRANCH  13  14
ATOM     14  CG  ASN A   1      38.726  11.458  26.673  0.00  0.00    +0.221 C 
ATOM     15  OD1 ASN A   1      39.033  11.303  27.857  0.00  0.00    -0.275 OA
ATOM     16  ND2 ASN A   1      37.580  12.049  26.288  0.00  0.00    -0.329 N 
ATOM     17 HD21 ASN A   1      36.909  12.398  27.002  0.00  0.00    +0.145 HD
ATOM     18 HD22 ASN A   1      37.365  12.157  25.276  0.00  0.00    +0.145 HD
ENDBRANCH  13  14
ENDBRANCH  10  13
ENDBRANCH   6  10
ENDBRANCH   5   8
ENDBRANCH   1   5
BRANCH   3  19
ATOM     19  CA  VAL A   3      35.500  15.306  23.440  0.00  0.00    +0.149 C 
BRANCH  19  20
ATOM     20  C   VAL A   3      34.666  15.405  22.163  0.00  0.00    +0.241 C 
ATOM     21  O   VAL A   3      33.435  15.421  22.199  0.00  0.00    -0.273 OA
ATOM     22  N   ALA A   4      35.364  15.481  21.040  0.00  0.00    -0.298 N 
ATOM     23  H   ALA A   4      36.385  15.668  21.106  0.00  0.00    +0.150 HD
BRANCH  22  24
ATOM     24  CA  ALA A   4      34.776  15.316  19.715  0.00  0.00    +0.137 C 
ATOM     25  CB  ALA A   4      34.065  16.563  19.254  0.00  0.00    +0.030 C 
BRANCH  24  26
ATOM     26  C   ALA A   4      35.929  14.989  18.797  0.00  0.00    +0.227 C 
ATOM     27  O   ALA A   4      37.106  15.297  19.103  0.00  0.00    -0.286 OA
ENDBRANCH  24  26
ENDBRANCH  22  24
ENDBRANCH  19  20
BRANCH  19  28
ATOM     28  CB  VAL A   3      34.989  16.250  24.565  0.00  0.00    +0.027 C 
ATOM     29  CG2 VAL A   3      35.531  15.777  25.926  0.00  0.00    +0.002 C 
ATOM     30  CG1 VAL A   3      35.343  17.709  24.293  0.00  0.00    +0.002 C 
ENDBRANCH  19  28
ENDBRANCH   3  19
TORSDOF 11
REMARK  Name = ../refined-set-2016/3syr/3syr_pocket.pdb
REMARK  256 active torsions:
REMARK  status: ('A' for Active; 'I' for Inactive)
REMARK    1  A    between atoms: _1  and  _3
REMARK    2  A    between atoms: _3  and  _4
REMARK    3  A    between atoms: _3  and  _6
REMARK    4  A    between atoms: _6  and  _7
REMARK    5  A    between atoms: _12  and  _13
REMARK    6  A    between atoms: _15  and  _17
REMARK    7  A    between atoms: _17  and  _18
REMARK    8  A    between atoms: _17  and  _20
REMARK    9  A    between atoms: _20  and  _21
REMARK   10  A    between atoms: _21  and  _22
REMARK   11  A    between atoms: _25  and  _27
REMARK   12  A    between atoms: _27  and  _28
REMARK   13  A    between atoms: _27  and  _30
REMARK   14  A    between atoms: _30  and  _31
REMARK   15  A    between atoms: _36  and  _37
REMARK   16  A    between atoms: _39  and  _41
REMARK   17  A    between atoms: _41  and  _42
REMARK   18  A    between atoms: _41  and  _44
REMARK   19  A    between atoms: _44  and  _45
REMARK   20  A    between atoms: _50  and  _52
REMARK   21  A    between atoms: _52  and  _53
REMARK   22  A    between atoms: _55  and  _57
REMARK   23  A    between atoms: _57  and  _58
REMARK   24  A    between atoms: _60  and  _62
REMARK   25  A    between atoms: _62  and  _63
REMARK   26  A    between atoms: _62  and  _65
REMARK   27  A    between atoms: _65  and  _66
REMARK   28  A    between atoms: _69  and  _71
REMARK   29  A    between atoms: _71  and  _72
REMARK   30  A    between atoms: _74  and  _76
REMARK   31  A    between atoms: _76  and  _77
REMARK   32  A    between atoms: _76  and  _79
REMARK   33  A    between atoms: _79  and  _80
REMARK   34  A    between atoms: _80  and  _81
REMARK   35  A    between atoms: _81  and  _82
REMARK   36  A    between atoms: _91  and  _93
REMARK   37  A    between atoms: _93  and  _94
REMARK   38  A    between atoms: _93  and  _96
REMARK   39  A    between atoms: _96  and  _97
REMARK   40  A    between atoms: _100  and  _102
REMARK   41  A    between atoms: _102  and  _103
REMARK   42  A    between atoms: _106  and  _108
REMARK   43  A    between atoms: _108  and  _109
REMARK   44  A    between atoms: _108  and  _111
REMARK   45  A    between atoms: _111  and  _112
REMARK   46  A    between atoms: _118  and  _120
REMARK   47  A    between atoms: _120  and  _121
REMARK   48  A    between atoms: _120  and  _123
REMARK   49  A    between atoms: _123  and  _124
REMARK   50  A    between atoms: _129  and  _131
REMARK   51  A    between atoms: _131  and  _132
REMARK   52  A    between atoms: _131  and  _134
REMARK   53  A    between atoms: _134  and  _135
REMARK   54  A    between atoms: _138  and  _140
REMARK   55  A    between atoms: _140  and  _141
REMARK   56  A    between atoms: _140  and  _143
REMARK   57  A    between atoms: _143  and  _144
REMARK   58  A    between atoms: _149  and  _151
REMARK   59  A    between atoms: _151  and  _152
REMARK   60  A    between atoms: _151  and  _154
REMARK   61  A    between atoms: _154  and  _155
REMARK   62  A    between atoms: _161  and  _163
REMARK   63  A    between atoms: _163  and  _164
REMARK   64  A    between atoms: _163  and  _166
REMARK   65  A    between atoms: _166  and  _167
REMARK   66  A    between atoms: _173  and  _175
REMARK   67  A    between atoms: _175  and  _176
REMARK   68  A    between atoms: _175  and  _178
REMARK   69  A    between atoms: _178  and  _179
REMARK   70  A    between atoms: _179  and  _180
REMARK   71  A    between atoms: _180  and  _181
REMARK   72  A    between atoms: _190  and  _192
REMARK   73  A    between atoms: _192  and  _193
REMARK   74  A    between atoms: _192  and  _195
REMARK   75  A    between atoms: _195  and  _196
REMARK   76  A    between atoms: _201  and  _203
REMARK   77  A    between atoms: _203  and  _204
REMARK   78  A    between atoms: _203  and  _206
REMARK   79  A    between atoms: _206  and  _207
REMARK   80  A    between atoms: _210  and  _212
REMARK   81  A    between atoms: _212  and  _213
REMARK   82  A    between atoms: _212  and  _215
REMARK   83  A    between atoms: _215  and  _216
REMARK   84  A    between atoms: _219  and  _221
REMARK   85  A    between atoms: _221  and  _222
REMARK   86  A    between atoms: _221  and  _224
REMARK   87  A    between atoms: _224  and  _225
REMARK   88  A    between atoms: _230  and  _232
REMARK   89  A    between atoms: _232  and  _233
REMARK   90  A    between atoms: _232  and  _235
REMARK   91  A    between atoms: _235  and  _236
REMARK   92  A    between atoms: _241  and  _242
REMARK   93  A    between atoms: _244  and  _246
REMARK   94  A    between atoms: _246  and  _247
REMARK   95  A    between atoms: _246  and  _249
REMARK   96  A    between atoms: _249  and  _250
REMARK   97  A    between atoms: _253  and  _255
REMARK   98  A    between atoms: _255  and  _256
REMARK   99  A    between atoms: _255  and  _258
REMARK  100  A    between atoms: _258  and  _259
REMARK  101  A    between atoms: _264  and  _266
REMARK  102  A    between atoms: _266  and  _267
REMARK  103  A    between atoms: _266  and  _269
REMARK  104  A    between atoms: _269  and  _270
REMARK  105  A    between atoms: _275  and  _277
REMARK  106  A    between atoms: _277  and  _278
REMARK  107  A    between atoms: _277  and  _280
REMARK  108  A    between atoms: _280  and  _281
REMARK  109  A    between atoms: _284  and  _286
REMARK  110  A    between atoms: _286  and  _287
REMARK  111  A    between atoms: _286  and  _289
REMARK  112  A    between atoms: _292  and  _294
REMARK  113  A    between atoms: _294  and  _295
REMARK  114  A    between atoms: _294  and  _297
REMARK  115  A    between atoms: _297  and  _298
REMARK  116  A    between atoms: _301  and  _303
REMARK  117  A    between atoms: _303  and  _304
REMARK  118  A    between atoms: _307  and  _309
REMARK  119  A    between atoms: _309  and  _310
REMARK  120  A    between atoms: _309  and  _312
REMARK  121  A    between atoms: _312  and  _313
REMARK  122  A    between atoms: _316  and  _318
REMARK  123  A    between atoms: _318  and  _319
REMARK  124  A    between atoms: _318  and  _321
REMARK  125  A    between atoms: _321  and  _322
REMARK  126  A    between atoms: _322  and  _323
REMARK  127  A    between atoms: _326  and  _328
REMARK  128  A    between atoms: _328  and  _329
REMARK  129  A    between atoms: _328  and  _331
REMARK  130  A    between atoms: _331  and  _332
REMARK  131  A    between atoms: _337  and  _339
REMARK  132  A    between atoms: _339  and  _340
REMARK  133  A    between atoms: _342  and  _344
REMARK  134  A    between atoms: _344  and  _345
REMARK  135  A    between atoms: _344  and  _347
REMARK  136  A    between atoms: _350  and  _352
REMARK  137  A    between atoms: _352  and  _353
REMARK  138  A    between atoms: _356  and  _358
REMARK  139  A    between atoms: _358  and  _359
REMARK  140  A    between atoms: _358  and  _361
REMARK  141  A    between atoms: _361  and  _362
REMARK  142  A    between atoms: _367  and  _369
REMARK  143  A    between atoms: _369  and  _370
REMARK  144  A    between atoms: _369  and  _372
REMARK  145  A    between atoms: _372  and  _373
REMARK  146  A    between atoms: _373  and  _374
REMARK  147  A    between atoms: _374  and  _375
REMARK  148  A    between atoms: _375  and  _376
REMARK  149  A    between atoms: _380  and  _382
REMARK  150  A    between atoms: _382  and  _383
REMARK  151  A    between atoms: _382  and  _385
REMARK  152  A    between atoms: _385  and  _386
REMARK  153  A    between atoms: _389  and  _391
REMARK  154  A    between atoms: _391  and  _392
REMARK  155  A    between atoms: _391  and  _394
REMARK  156  A    between atoms: _394  and  _395
REMARK  157  A    between atoms: _400  and  _402
REMARK  158  A    between atoms: _402  and  _403
REMARK  159  A    between atoms: _405  and  _407
REMARK  160  A    between atoms: _407  and  _408
REMARK  161  A    between atoms: _407  and  _410
REMARK  162  A    between atoms: _410  and  _411
REMARK  163  A    between atoms: _414  and  _416
REMARK  164  A    between atoms: _416  and  _417
REMARK  165  A    between atoms: _416  and  _419
REMARK  166  A    between atoms: _419  and  _420
REMARK  167  A    between atoms: _420  and  _421
REMARK  168  A    between atoms: _421  and  _422
REMARK  169  A    between atoms: _422  and  _423
REMARK  170  A    between atoms: _427  and  _429
REMARK  171  A    between atoms: _429  and  _430
REMARK  172  A    between atoms: _429  and  _432
REMARK  173  A    between atoms: _432  and  _433
REMARK  174  A    between atoms: _433  and  _434
REMARK  175  A    between atoms: _434  and  _435
REMARK  176  A    between atoms: _444  and  _446
REMARK  177  A    between atoms: _446  and  _447
REMARK  178  A    between atoms: _446  and  _449
REMARK  179  A    between atoms: _449  and  _450
REMARK  180  A    between atoms: _455  and  _457
REMARK  181  A    between atoms: _457  and  _458
REMARK  182  A    between atoms: _457  and  _460
REMARK  183  A    between atoms: _460  and  _461
REMARK  184  A    between atoms: _466  and  _467
REMARK  185  A    between atoms: _469  and  _471
REMARK  186  A    between atoms: _471  and  _472
REMARK  187  A    between atoms: _471  and  _474
REMARK  188  A    between atoms: _474  and  _475
REMARK  189  A    between atoms: _475  and  _476
REMARK  190  A    between atoms: _476  and  _477
REMARK  191  A    between atoms: _477  and  _478
REMARK  192  A    between atoms: _482  and  _484
REMARK  193  A    between atoms: _484  and  _485
REMARK  194  A    between atoms: _484  and  _487
REMARK  195  A    between atoms: _487  and  _488
REMARK  196  A    between atoms: _490  and  _492
REMARK  197  A    between atoms: _492  and  _493
REMARK  198  A    between atoms: _492  and  _495
REMARK  199  A    between atoms: _495  and  _496
REMARK  200  A    between atoms: _499  and  _501
REMARK  201  A    between atoms: _501  and  _502
REMARK  202  A    between atoms: _501  and  _504
REMARK  203  A    between atoms: _504  and  _505
REMARK  204  A    between atoms: _505  and  _506
REMARK  205  A    between atoms: _509  and  _511
REMARK  206  A    between atoms: _511  and  _512
REMARK  207  A    between atoms: _515  and  _517
REMARK  208  A    between atoms: _517  and  _518
REMARK  209  A    between atoms: _517  and  _520
REMARK  210  A    between atoms: _520  and  _521
REMARK  211  A    between atoms: _523  and  _525
REMARK  212  A    between atoms: _525  and  _526
REMARK  213  A    between atoms: _528  and  _530
REMARK  214  A    between atoms: _530  and  _531
REMARK  215  A    between atoms: _530  and  _533
REMARK  216  A    between atoms: _533  and  _534
REMARK  217  A    between atoms: _537  and  _539
REMARK  218  A    between atoms: _539  and  _540
REMARK  219  A    between atoms: _542  and  _544
REMARK  220  A    between atoms: _544  and  _545
REMARK  221  A    between atoms: _544  and  _547
REMARK  222  A    between atoms: _547  and  _548
REMARK  223  A    between atoms: _553  and  _555
REMARK  224  A    between atoms: _555  and  _556
REMARK  225  A    between atoms: _555  and  _558
REMARK  226  A    between atoms: _558  and  _559
REMARK  227  A    between atoms: _559  and  _560
REMARK  228  A    between atoms: _567  and  _568
REMARK  229  A    between atoms: _568  and  _584
REMARK  230  A    between atoms: _569  and  _571
REMARK  231  A    between atoms: _571  and  _572
REMARK  232  A    between atoms: _572  and  _573
REMARK  233  A    between atoms: _577  and  _579
REMARK  234  A    between atoms: _579  and  _580
REMARK  235  A    between atoms: _579  and  _587
REMARK  236  A    between atoms: _580  and  _581
REMARK  237  A    between atoms: _581  and  _582
REMARK  238  A    between atoms: _582  and  _583
REMARK  239  A    between atoms: _583  and  _584
REMARK  240  A    between atoms: _589  and  _591
REMARK  241  A    between atoms: _591  and  _592
REMARK  242  A    between atoms: _591  and  _594
REMARK  243  A    between atoms: _594  and  _595
REMARK  244  A    between atoms: _598  and  _600
REMARK  245  A    between atoms: _600  and  _601
REMARK  246  A    between atoms: _603  and  _605
REMARK  247  A    between atoms: _605  and  _606
REMARK  248  A    between atoms: _609  and  _611
REMARK  249  A    between atoms: _611  and  _612
REMARK  250  A    between atoms: _611  and  _614
REMARK  251  A    between atoms: _614  and  _615
REMARK  252  A    between atoms: _618  and  _620
REMARK  253  A    between atoms: _620  and  _621
REMARK  254  A    between atoms: _620  and  _623
REMARK  255  A    between atoms: _623  and  _624
REMARK  256  A    between atoms: _629  and  _630
REMARK                            x       y       z     vdW  Elec       q    Type
REMARK                         _______ _______ _______ _____ _____    ______ ____
ROOT
ATOM      1  CB  HIS A   1      37.946  18.535  20.020  0.00  0.00    +0.072 C 
ENDROOT
BRANCH   1   2
ATOM      2  CG  HIS A   1      38.596  18.684  21.359  0.00  0.00    +0.082 A 
ATOM      3  CD2 HIS A   1      38.522  17.922  22.475  0.00  0.00    +0.115 A 
ATOM      4  NE2 HIS A   1      39.317  18.520  23.426  0.00  0.00    -0.221 NA
ATOM      5  CE1 HIS A   1      39.857  19.608  22.914  0.00  0.00    +0.199 A 
ATOM      6  ND1 HIS A   1      39.446  19.725  21.665  0.00  0.00    -0.227 NA
ENDBRANCH   1   2
BRANCH   1   7
ATOM      7  CA  HIS A   1      38.940  18.371  18.850  0.00  0.00    +0.139 C 
BRANCH   7   8
ATOM      8  N   HIS A   1      38.226  17.882  17.683  0.00  0.00    -0.239 NA
ATOM      9  H   HIS A   1      37.248  17.554  17.814  0.00  0.00    +0.142 HD
ENDBRANCH   7   8
BRANCH   7  10
ATOM     10  C   HIS A   1      40.073  17.409  19.216  0.00  0.00    +0.224 C 
ATOM     11  O   HIS A   1      41.177  17.846  19.519  0.00  0.00    -0.287 OA
ENDBRANCH   7  10
ENDBRANCH   1   7
TORSDOF 4
REMARK  Name = ../refined-set-2016/3syr/3syr_pocket.pdb
REMARK  256 active torsions:
REMARK  status: ('A' for Active; 'I' for Inactive)
REMARK    1  A    between atoms: _1  and  _3
REMARK    2  A    between atoms: _3  and  _4
REMARK    3  A    between atoms: _3  and  _6
REMARK    4  A    between atoms: _6  and  _7
REMARK    5  A    between atoms: _12  and  _13
REMARK    6  A    between atoms: _15  and  _17
REMARK    7  A    between atoms: _17  and  _18
REMARK    8  A    between atoms: _17  and  _20
REMARK    9  A    between atoms: _20  and  _21
REMARK   10  A    between atoms: _21  and  _22
REMARK   11  A    between atoms: _25  and  _27
REMARK   12  A    between atoms: _27  and  _28
REMARK   13  A    between atoms: _27  and  _30
REMARK   14  A    between atoms: _30  and  _31
REMARK   15  A    between atoms: _36  and  _37
REMARK   16  A    between atoms: _39  and  _41
REMARK   17  A    between atoms: _41  and  _42
REMARK   18  A    between atoms: _41  and  _44
REMARK   19  A    between atoms: _44  and  _45
REMARK   20  A    between atoms: _50  and  _52
REMARK   21  A    between atoms: _52  and  _53
REMARK   22  A    between atoms: _55  and  _57
REMARK   23  A    between atoms: _57  and  _58
REMARK   24  A    between atoms: _60  and  _62
REMARK   25  A    between atoms: _62  and  _63
REMARK   26  A    between atoms: _62  and  _65
REMARK   27  A    between atoms: _65  and  _66
REMARK   28  A    between atoms: _69  and  _71
REMARK   29  A    between atoms: _71  and  _72
REMARK   30  A    between atoms: _74  and  _76
REMARK   31  A    between atoms: _76  and  _77
REMARK   32  A    between atoms: _76  and  _79
REMARK   33  A    between atoms: _79  and  _80
REMARK   34  A    between atoms: _80  and  _81
REMARK   35  A    between atoms: _81  and  _82
REMARK   36  A    between atoms: _91  and  _93
REMARK   37  A    between atoms: _93  and  _94
REMARK   38  A    between atoms: _93  and  _96
REMARK   39  A    between atoms: _96  and  _97
REMARK   40  A    between atoms: _100  and  _102
REMARK   41  A    between atoms: _102  and  _103
REMARK   42  A    between atoms: _106  and  _108
REMARK   43  A    between atoms: _108  and  _109
REMARK   44  A    between atoms: _108  and  _111
REMARK   45  A    between atoms: _111  and  _112
REMARK   46  A    between atoms: _118  and  _120
REMARK   47  A    between atoms: _120  and  _121
REMARK   48  A    between atoms: _120  and  _123
REMARK   49  A    between atoms: _123  and  _124
REMARK   50  A    between atoms: _129  and  _131
REMARK   51  A    between atoms: _131  and  _132
REMARK   52  A    between atoms: _131  and  _134
REMARK   53  A    between atoms: _134  and  _135
REMARK   54  A    between atoms: _138  and  _140
REMARK   55  A    between atoms: _140  and  _141
REMARK   56  A    between atoms: _140  and  _143
REMARK   57  A    between atoms: _143  and  _144
REMARK   58  A    between atoms: _149  and  _151
REMARK   59  A    between atoms: _151  and  _152
REMARK   60  A    between atoms: _151  and  _154
REMARK   61  A    between atoms: _154  and  _155
REMARK   62  A    between atoms: _161  and  _163
REMARK   63  A    between atoms: _163  and  _164
REMARK   64  A    between atoms: _163  and  _166
REMARK   65  A    between atoms: _166  and  _167
REMARK   66  A    between atoms: _173  and  _175
REMARK   67  A    between atoms: _175  and  _176
REMARK   68  A    between atoms: _175  and  _178
REMARK   69  A    between atoms: _178  and  _179
REMARK   70  A    between atoms: _179  and  _180
REMARK   71  A    between atoms: _180  and  _181
REMARK   72  A    between atoms: _190  and  _192
REMARK   73  A    between atoms: _192  and  _193
REMARK   74  A    between atoms: _192  and  _195
REMARK   75  A    between atoms: _195  and  _196
REMARK   76  A    between atoms: _201  and  _203
REMARK   77  A    between atoms: _203  and  _204
REMARK   78  A    between atoms: _203  and  _206
REMARK   79  A    between atoms: _206  and  _207
REMARK   80  A    between atoms: _210  and  _212
REMARK   81  A    between atoms: _212  and  _213
REMARK   82  A    between atoms: _212  and  _215
REMARK   83  A    between atoms: _215  and  _216
REMARK   84  A    between atoms: _219  and  _221
REMARK   85  A    between atoms: _221  and  _222
REMARK   86  A    between atoms: _221  and  _224
REMARK   87  A    between atoms: _224  and  _225
REMARK   88  A    between atoms: _230  and  _232
REMARK   89  A    between atoms: _232  and  _233
REMARK   90  A    between atoms: _232  and  _235
REMARK   91  A    between atoms: _235  and  _236
REMARK   92  A    between atoms: _241  and  _242
REMARK   93  A    between atoms: _244  and  _246
REMARK   94  A    between atoms: _246  and  _247
REMARK   95  A    between atoms: _246  and  _249
REMARK   96  A    between atoms: _249  and  _250
REMARK   97  A    between atoms: _253  and  _255
REMARK   98  A    between atoms: _255  and  _256
REMARK   99  A    between atoms: _255  and  _258
REMARK  100  A    between atoms: _258  and  _259
REMARK  101  A    between atoms: _264  and  _266
REMARK  102  A    between atoms: _266  and  _267
REMARK  103  A    between atoms: _266  and  _269
REMARK  104  A    between atoms: _269  and  _270
REMARK  105  A    between atoms: _275  and  _277
REMARK  106  A    between atoms: _277  and  _278
REMARK  107  A    between atoms: _277  and  _280
REMARK  108  A    between atoms: _280  and  _281
REMARK  109  A    between atoms: _284  and  _286
REMARK  110  A    between atoms: _286  and  _287
REMARK  111  A    between atoms: _286  and  _289
REMARK  112  A    between atoms: _292  and  _294
REMARK  113  A    between atoms: _294  and  _295
REMARK  114  A    between atoms: _294  and  _297
REMARK  115  A    between atoms: _297  and  _298
REMARK  116  A    between atoms: _301  and  _303
REMARK  117  A    between atoms: _303  and  _304
REMARK  118  A    between atoms: _307  and  _309
REMARK  119  A    between atoms: _309  and  _310
REMARK  120  A    between atoms: _309  and  _312
REMARK  121  A    between atoms: _312  and  _313
REMARK  122  A    between atoms: _316  and  _318
REMARK  123  A    between atoms: _318  and  _319
REMARK  124  A    between atoms: _318  and  _321
REMARK  125  A    between atoms: _321  and  _322
REMARK  126  A    between atoms: _322  and  _323
REMARK  127  A    between atoms: _326  and  _328
REMARK  128  A    between atoms: _328  and  _329
REMARK  129  A    between atoms: _328  and  _331
REMARK  130  A    between atoms: _331  and  _332
REMARK  131  A    between atoms: _337  and  _339
REMARK  132  A    between atoms: _339  and  _340
REMARK  133  A    between atoms: _342  and  _344
REMARK  134  A    between atoms: _344  and  _345
REMARK  135  A    between atoms: _344  and  _347
REMARK  136  A    between atoms: _350  and  _352
REMARK  137  A    between atoms: _352  and  _353
REMARK  138  A    between atoms: _356  and  _358
REMARK  139  A    between atoms: _358  and  _359
REMARK  140  A    between atoms: _358  and  _361
REMARK  141  A    between atoms: _361  and  _362
REMARK  142  A    between atoms: _367  and  _369
REMARK  143  A    between atoms: _369  and  _370
REMARK  144  A    between atoms: _369  and  _372
REMARK  145  A    between atoms: _372  and  _373
REMARK  146  A    between atoms: _373  and  _374
REMARK  147  A    between atoms: _374  and  _375
REMARK  148  A    between atoms: _375  and  _376
REMARK  149  A    between atoms: _380  and  _382
REMARK  150  A    between atoms: _382  and  _383
REMARK  151  A    between atoms: _382  and  _385
REMARK  152  A    between atoms: _385  and  _386
REMARK  153  A    between atoms: _389  and  _391
REMARK  154  A    between atoms: _391  and  _392
REMARK  155  A    between atoms: _391  and  _394
REMARK  156  A    between atoms: _394  and  _395
REMARK  157  A    between atoms: _400  and  _402
REMARK  158  A    between atoms: _402  and  _403
REMARK  159  A    between atoms: _405  and  _407
REMARK  160  A    between atoms: _407  and  _408
REMARK  161  A    between atoms: _407  and  _410
REMARK  162  A    between atoms: _410  and  _411
REMARK  163  A    between atoms: _414  and  _416
REMARK  164  A    between atoms: _416  and  _417
REMARK  165  A    between atoms: _416  and  _419
REMARK  166  A    between atoms: _419  and  _420
REMARK  167  A    between atoms: _420  and  _421
REMARK  168  A    between atoms: _421  and  _422
REMARK  169  A    between atoms: _422  and  _423
REMARK  170  A    between atoms: _427  and  _429
REMARK  171  A    between atoms: _429  and  _430
REMARK  172  A    between atoms: _429  and  _432
REMARK  173  A    between atoms: _432  and  _433
REMARK  174  A    between atoms: _433  and  _434
REMARK  175  A    between atoms: _434  and  _435
REMARK  176  A    between atoms: _444  and  _446
REMARK  177  A    between atoms: _446  and  _447
REMARK  178  A    between atoms: _446  and  _449
REMARK  179  A    between atoms: _449  and  _450
REMARK  180  A    between atoms: _455  and  _457
REMARK  181  A    between atoms: _457  and  _458
REMARK  182  A    between atoms: _457  and  _460
REMARK  183  A    between atoms: _460  and  _461
REMARK  184  A    between atoms: _466  and  _467
REMARK  185  A    between atoms: _469  and  _471
REMARK  186  A    between atoms: _471  and  _472
REMARK  187  A    between atoms: _471  and  _474
REMARK  188  A    between atoms: _474  and  _475
REMARK  189  A    between atoms: _475  and  _476
REMARK  190  A    between atoms: _476  and  _477
REMARK  191  A    between atoms: _477  and  _478
REMARK  192  A    between atoms: _482  and  _484
REMARK  193  A    between atoms: _484  and  _485
REMARK  194  A    between atoms: _484  and  _487
REMARK  195  A    between atoms: _487  and  _488
REMARK  196  A    between atoms: _490  and  _492
REMARK  197  A    between atoms: _492  and  _493
REMARK  198  A    between atoms: _492  and  _495
REMARK  199  A    between atoms: _495  and  _496
REMARK  200  A    between atoms: _499  and  _501
REMARK  201  A    between atoms: _501  and  _502
REMARK  202  A    between atoms: _501  and  _504
REMARK  203  A    between atoms: _504  and  _505
REMARK  204  A    between atoms: _505  and  _506
REMARK  205  A    between atoms: _509  and  _511
REMARK  206  A    between atoms: _511  and  _512
REMARK  207  A    between atoms: _515  and  _517
REMARK  208  A    between atoms: _517  and  _518
REMARK  209  A    between atoms: _517  and  _520
REMARK  210  A    between atoms: _520  and  _521
REMARK  211  A    between atoms: _523  and  _525
REMARK  212  A    between atoms: _525  and  _526
REMARK  213  A    between atoms: _528  and  _530
REMARK  214  A    between atoms: _530  and  _531
REMARK  215  A    between atoms: _530  and  _533
REMARK  216  A    between atoms: _533  and  _534
REMARK  217  A    between atoms: _537  and  _539
REMARK  218  A    between atoms: _539  and  _540
REMARK  219  A    between atoms: _542  and  _544
REMARK  220  A    between atoms: _544  and  _545
REMARK  221  A    between atoms: _544  and  _547
REMARK  222  A    between atoms: _547  and  _548
REMARK  223  A    between atoms: _553  and  _555
REMARK  224  A    between atoms: _555  and  _556
REMARK  225  A    between atoms: _555  and  _558
REMARK  226  A    between atoms: _558  and  _559
REMARK  227  A    between atoms: _559  and  _560
REMARK  228  A    between atoms: _567  and  _568
REMARK  229  A    between atoms: _568  and  _584
REMARK  230  A    between atoms: _569  and  _571
REMARK  231  A    between atoms: _571  and  _572
REMARK  232  A    between atoms: _572  and  _573
REMARK  233  A    between atoms: _577  and  _579
REMARK  234  A    between atoms: _579  and  _580
REMARK  235  A    between atoms: _579  and  _587
REMARK  236  A    between atoms: _580  and  _581
REMARK  237  A    between atoms: _581  and  _582
REMARK  238  A    between atoms: _582  and  _583
REMARK  239  A    between atoms: _583  and  _584
REMARK  240  A    between atoms: _589  and  _591
REMARK  241  A    between atoms: _591  and  _592
REMARK  242  A    between atoms: _591  and  _594
REMARK  243  A    between atoms: _594  and  _595
REMARK  244  A    between atoms: _598  and  _600
REMARK  245  A    between atoms: _600  and  _601
REMARK  246  A    between atoms: _603  and  _605
REMARK  247  A    between atoms: _605  and  _606
REMARK  248  A    between atoms: _609  and  _611
REMARK  249  A    between atoms: _611  and  _612
REMARK  250  A    between atoms: _611  and  _614
REMARK  251  A    between atoms: _614  and  _615
REMARK  252  A    between atoms: _618  and  _620
REMARK  253  A    between atoms: _620  and  _621
REMARK  254  A    between atoms: _620  and  _623
REMARK  255  A    between atoms: _623  and  _624
REMARK  256  A    between atoms: _629  and  _630
REMARK                            x       y       z     vdW  Elec       q    Type
REMARK                         _______ _______ _______ _____ _____    ______ ____
ROOT
ATOM      1  C   THR A   2      31.603  12.407  22.549  0.00  0.00    +0.243 C 
ATOM      2  N   ASN A   3      31.330  13.623  22.995  0.00  0.00    -0.297 N 
ATOM      3  H   ASN A   3      31.826  14.429  22.564  0.00  0.00    +0.150 HD
ATOM      4  O   THR A   2      31.068  11.405  22.984  0.00  0.00    -0.273 OA
ENDROOT
BRANCH   2   5
ATOM      5  CA  ASN A   3      30.378  13.889  24.050  0.00  0.00    +0.158 C 
BRANCH   5   6
ATOM      6  C   ASN A   3      28.958  13.391  23.700  0.00  0.00    +0.241 C 
ATOM      7  N   GLY A   4      28.082  13.386  24.700  0.00  0.00    -0.295 N 
ATOM      8  H   GLY A   4      28.420  13.667  25.643  0.00  0.00    +0.150 HD
ATOM      9  O   ASN A   3      28.691  12.980  22.564  0.00  0.00    -0.273 OA
BRANCH   7  10
ATOM     10  CA  GLY A   4      26.685  13.015  24.564  0.00  0.00    +0.176 C 
BRANCH  10  11
ATOM     11  C   GLY A   4      25.894  13.721  25.666  0.00  0.00    +0.243 C 
ATOM     12  O   GLY A   4      26.473  14.379  26.533  0.00  0.00    -0.273 OA
ATOM     13  N   ILE A   5      24.565  13.612  25.594  0.00  0.00    -0.298 N 
ATOM     14  H   ILE A   5      24.166  13.089  24.789  0.00  0.00    +0.150 HD
BRANCH  13  15
ATOM     15  CA  ILE A   5      23.629  14.178  26.571  0.00  0.00    +0.137 C 
BRANCH  15  16
ATOM     16  CB  ILE A   5      22.821  15.354  25.954  0.00  0.00    +0.026 C 
ATOM     17  CG2 ILE A   5      23.758  16.556  25.599  0.00  0.00    +0.002 C 
BRANCH  16  18
ATOM     18  CG1 ILE A   5      22.049  14.872  24.703  0.00  0.00    +0.002 C 
ATOM     19  CD1 ILE A   5      20.908  15.742  24.266  0.00  0.00    +0.000 C 
ENDBRANCH  16  18
ENDBRANCH  15  16
BRANCH  15  20
ATOM     20  C   ILE A   5      22.680  13.028  26.972  0.00  0.00    +0.227 C 
ATOM     21  O   ILE A   5      22.526  12.061  26.234  0.00  0.00    -0.286 OA
ENDBRANCH  15  20
ENDBRANCH  13  15
ENDBRANCH  10  11
ENDBRANCH   7  10
ENDBRANCH   5   6
BRANCH   5  22
ATOM     22  CB  ASN A   3      30.411  15.385  24.375  0.00  0.00    +0.114 C 
BRANCH  22  23
ATOM     23  CG  ASN A   3      31.595  15.773  25.278  0.00  0.00    +0.222 C 
ATOM     24  ND2 ASN A   3      32.182  14.790  25.932  0.00  0.00    -0.329 N 
ATOM     25 HD21 ASN A   3      32.977  14.993  26.572  0.00  0.00    +0.145 HD
ATOM     26 HD22 ASN A   3      31.850  13.812  25.808  0.00  0.00    +0.145 HD
ATOM     27  OD1 ASN A   3      31.955  16.949  25.394  0.00  0.00    -0.275 OA
ENDBRANCH  22  23
ENDBRANCH   5  22
ENDBRANCH   2   5
BRANCH   1  28
ATOM     28  CA  THR A   2      32.667  12.313  21.455  0.00  0.00    +0.176 C 
BRANCH  28  31
ATOM     29  C   LYS A   1      34.320  11.315  22.905  0.00  0.00    +0.238 C 
ATOM     30  O   LYS A   1      34.275  12.255  23.697  0.00  0.00    -0.274 OA
ATOM     31  N   THR A   2      33.607  11.276  21.795  0.00  0.00    -0.295 N 
ATOM     32  H   THR A   2      33.728  10.472  21.146  0.00  0.00    +0.150 HD
BRANCH  29  33
ATOM     33  CA  LYS A   1      35.259  10.150  23.114  0.00  0.00    +0.145 C 
BRANCH  33  34
ATOM     34  N   LYS A   1      36.519  10.571  22.521  0.00  0.00    -0.238 NA
ATOM     35  H   LYS A   1      36.805  11.568  22.603  0.00  0.00    +0.142 HD
ENDBRANCH  33  34
BRANCH  33  36
ATOM     36  CB  LYS A   1      35.409   9.823  24.608  0.00  0.00    +0.026 C 
BRANCH  36  37
ATOM     37  CG  LYS A   1      36.312   8.631  24.919  0.00  0.00    -0.000 C 
BRANCH  37  38
ATOM     38  CD  LYS A   1      35.677   7.289  24.503  0.00  0.00    -0.024 C 
BRANCH  38  39
ATOM     39  CE  LYS A   1      36.632   6.131  24.671  0.00  0.00    -0.086 C 
BRANCH  39  40
ATOM     40  NZ  LYS A   1      37.589   6.032  23.510  0.00  0.00    +0.380 N 
ATOM     41  HZ1 LYS A   1      38.230   5.226  23.658  0.00  0.00    -0.089 HD
ATOM     42  HZ2 LYS A   1      38.143   6.910  23.443  0.00  0.00    -0.089 HD
ATOM     43  HZ3 LYS A   1      37.052   5.892  22.631  0.00  0.00    -0.089 HD
ENDBRANCH  39  40
ENDBRANCH  38  39
ENDBRANCH  37  38
ENDBRANCH  36  37
ENDBRANCH  33  36
ENDBRANCH  29  33
ENDBRANCH  28  31
BRANCH  28  44
ATOM     44  CB  THR A   2      32.036  12.010  20.084  0.00  0.00    +0.137 C 
ATOM     45  CG2 THR A   2      30.983  13.064  19.711  0.00  0.00    +0.034 C 
BRANCH  44  46
ATOM     46  OG1 THR A   2      33.074  12.000  19.099  0.00  0.00    -0.382 OA
ATOM     47  HG1 THR A   2      32.682  11.806  18.211  0.00  0.00    +0.210 HD
ENDBRANCH  44  46
ENDBRANCH  28  44
ENDBRANCH   1  28
TORSDOF 21
REMARK  Name = ../refined-set-2016/3syr/3syr_pocket.pdb
REMARK  256 active torsions:
REMARK  status: ('A' for Active; 'I' for Inactive)
REMARK    1  A    between atoms: _1  and  _3
REMARK    2  A    between atoms: _3  and  _4
REMARK    3  A    between atoms: _3  and  _6
REMARK    4  A    between atoms: _6  and  _7
REMARK    5  A    between atoms: _12  and  _13
REMARK    6  A    between atoms: _15  and  _17
REMARK    7  A    between atoms: _17  and  _18
REMARK    8  A    between atoms: _17  and  _20
REMARK    9  A    between atoms: _20  and  _21
REMARK   10  A    between atoms: _21  and  _22
REMARK   11  A    between atoms: _25  and  _27
REMARK   12  A    between atoms: _27  and  _28
REMARK   13  A    between atoms: _27  and  _30
REMARK   14  A    between atoms: _30  and  _31
REMARK   15  A    between atoms: _36  and  _37
REMARK   16  A    between atoms: _39  and  _41
REMARK   17  A    between atoms: _41  and  _42
REMARK   18  A    between atoms: _41  and  _44
REMARK   19  A    between atoms: _44  and  _45
REMARK   20  A    between atoms: _50  and  _52
REMARK   21  A    between atoms: _52  and  _53
REMARK   22  A    between atoms: _55  and  _57
REMARK   23  A    between atoms: _57  and  _58
REMARK   24  A    between atoms: _60  and  _62
REMARK   25  A    between atoms: _62  and  _63
REMARK   26  A    between atoms: _62  and  _65
REMARK   27  A    between atoms: _65  and  _66
REMARK   28  A    between atoms: _69  and  _71
REMARK   29  A    between atoms: _71  and  _72
REMARK   30  A    between atoms: _74  and  _76
REMARK   31  A    between atoms: _76  and  _77
REMARK   32  A    between atoms: _76  and  _79
REMARK   33  A    between atoms: _79  and  _80
REMARK   34  A    between atoms: _80  and  _81
REMARK   35  A    between atoms: _81  and  _82
REMARK   36  A    between atoms: _91  and  _93
REMARK   37  A    between atoms: _93  and  _94
REMARK   38  A    between atoms: _93  and  _96
REMARK   39  A    between atoms: _96  and  _97
REMARK   40  A    between atoms: _100  and  _102
REMARK   41  A    between atoms: _102  and  _103
REMARK   42  A    between atoms: _106  and  _108
REMARK   43  A    between atoms: _108  and  _109
REMARK   44  A    between atoms: _108  and  _111
REMARK   45  A    between atoms: _111  and  _112
REMARK   46  A    between atoms: _118  and  _120
REMARK   47  A    between atoms: _120  and  _121
REMARK   48  A    between atoms: _120  and  _123
REMARK   49  A    between atoms: _123  and  _124
REMARK   50  A    between atoms: _129  and  _131
REMARK   51  A    between atoms: _131  and  _132
REMARK   52  A    between atoms: _131  and  _134
REMARK   53  A    between atoms: _134  and  _135
REMARK   54  A    between atoms: _138  and  _140
REMARK   55  A    between atoms: _140  and  _141
REMARK   56  A    between atoms: _140  and  _143
REMARK   57  A    between atoms: _143  and  _144
REMARK   58  A    between atoms: _149  and  _151
REMARK   59  A    between atoms: _151  and  _152
REMARK   60  A    between atoms: _151  and  _154
REMARK   61  A    between atoms: _154  and  _155
REMARK   62  A    between atoms: _161  and  _163
REMARK   63  A    between atoms: _163  and  _164
REMARK   64  A    between atoms: _163  and  _166
REMARK   65  A    between atoms: _166  and  _167
REMARK   66  A    between atoms: _173  and  _175
REMARK   67  A    between atoms: _175  and  _176
REMARK   68  A    between atoms: _175  and  _178
REMARK   69  A    between atoms: _178  and  _179
REMARK   70  A    between atoms: _179  and  _180
REMARK   71  A    between atoms: _180  and  _181
REMARK   72  A    between atoms: _190  and  _192
REMARK   73  A    between atoms: _192  and  _193
REMARK   74  A    between atoms: _192  and  _195
REMARK   75  A    between atoms: _195  and  _196
REMARK   76  A    between atoms: _201  and  _203
REMARK   77  A    between atoms: _203  and  _204
REMARK   78  A    between atoms: _203  and  _206
REMARK   79  A    between atoms: _206  and  _207
REMARK   80  A    between atoms: _210  and  _212
REMARK   81  A    between atoms: _212  and  _213
REMARK   82  A    between atoms: _212  and  _215
REMARK   83  A    between atoms: _215  and  _216
REMARK   84  A    between atoms: _219  and  _221
REMARK   85  A    between atoms: _221  and  _222
REMARK   86  A    between atoms: _221  and  _224
REMARK   87  A    between atoms: _224  and  _225
REMARK   88  A    between atoms: _230  and  _232
REMARK   89  A    between atoms: _232  and  _233
REMARK   90  A    between atoms: _232  and  _235
REMARK   91  A    between atoms: _235  and  _236
REMARK   92  A    between atoms: _241  and  _242
REMARK   93  A    between atoms: _244  and  _246
REMARK   94  A    between atoms: _246  and  _247
REMARK   95  A    between atoms: _246  and  _249
REMARK   96  A    between atoms: _249  and  _250
REMARK   97  A    between atoms: _253  and  _255
REMARK   98  A    between atoms: _255  and  _256
REMARK   99  A    between atoms: _255  and  _258
REMARK  100  A    between atoms: _258  and  _259
REMARK  101  A    between atoms: _264  and  _266
REMARK  102  A    between atoms: _266  and  _267
REMARK  103  A    between atoms: _266  and  _269
REMARK  104  A    between atoms: _269  and  _270
REMARK  105  A    between atoms: _275  and  _277
REMARK  106  A    between atoms: _277  and  _278
REMARK  107  A    between atoms: _277  and  _280
REMARK  108  A    between atoms: _280  and  _281
REMARK  109  A    between atoms: _284  and  _286
REMARK  110  A    between atoms: _286  and  _287
REMARK  111  A    between atoms: _286  and  _289
REMARK  112  A    between atoms: _292  and  _294
REMARK  113  A    between atoms: _294  and  _295
REMARK  114  A    between atoms: _294  and  _297
REMARK  115  A    between atoms: _297  and  _298
REMARK  116  A    between atoms: _301  and  _303
REMARK  117  A    between atoms: _303  and  _304
REMARK  118  A    between atoms: _307  and  _309
REMARK  119  A    between atoms: _309  and  _310
REMARK  120  A    between atoms: _309  and  _312
REMARK  121  A    between atoms: _312  and  _313
REMARK  122  A    between atoms: _316  and  _318
REMARK  123  A    between atoms: _318  and  _319
REMARK  124  A    between atoms: _318  and  _321
REMARK  125  A    between atoms: _321  and  _322
REMARK  126  A    between atoms: _322  and  _323
REMARK  127  A    between atoms: _326  and  _328
REMARK  128  A    between atoms: _328  and  _329
REMARK  129  A    between atoms: _328  and  _331
REMARK  130  A    between atoms: _331  and  _332
REMARK  131  A    between atoms: _337  and  _339
REMARK  132  A    between atoms: _339  and  _340
REMARK  133  A    between atoms: _342  and  _344
REMARK  134  A    between atoms: _344  and  _345
REMARK  135  A    between atoms: _344  and  _347
REMARK  136  A    between atoms: _350  and  _352
REMARK  137  A    between atoms: _352  and  _353
REMARK  138  A    between atoms: _356  and  _358
REMARK  139  A    between atoms: _358  and  _359
REMARK  140  A    between atoms: _358  and  _361
REMARK  141  A    between atoms: _361  and  _362
REMARK  142  A    between atoms: _367  and  _369
REMARK  143  A    between atoms: _369  and  _370
REMARK  144  A    between atoms: _369  and  _372
REMARK  145  A    between atoms: _372  and  _373
REMARK  146  A    between atoms: _373  and  _374
REMARK  147  A    between atoms: _374  and  _375
REMARK  148  A    between atoms: _375  and  _376
REMARK  149  A    between atoms: _380  and  _382
REMARK  150  A    between atoms: _382  and  _383
REMARK  151  A    between atoms: _382  and  _385
REMARK  152  A    between atoms: _385  and  _386
REMARK  153  A    between atoms: _389  and  _391
REMARK  154  A    between atoms: _391  and  _392
REMARK  155  A    between atoms: _391  and  _394
REMARK  156  A    between atoms: _394  and  _395
REMARK  157  A    between atoms: _400  and  _402
REMARK  158  A    between atoms: _402  and  _403
REMARK  159  A    between atoms: _405  and  _407
REMARK  160  A    between atoms: _407  and  _408
REMARK  161  A    between atoms: _407  and  _410
REMARK  162  A    between atoms: _410  and  _411
REMARK  163  A    between atoms: _414  and  _416
REMARK  164  A    between atoms: _416  and  _417
REMARK  165  A    between atoms: _416  and  _419
REMARK  166  A    between atoms: _419  and  _420
REMARK  167  A    between atoms: _420  and  _421
REMARK  168  A    between atoms: _421  and  _422
REMARK  169  A    between atoms: _422  and  _423
REMARK  170  A    between atoms: _427  and  _429
REMARK  171  A    between atoms: _429  and  _430
REMARK  172  A    between atoms: _429  and  _432
REMARK  173  A    between atoms: _432  and  _433
REMARK  174  A    between atoms: _433  and  _434
REMARK  175  A    between atoms: _434  and  _435
REMARK  176  A    between atoms: _444  and  _446
REMARK  177  A    between atoms: _446  and  _447
REMARK  178  A    between atoms: _446  and  _449
REMARK  179  A    between atoms: _449  and  _450
REMARK  180  A    between atoms: _455  and  _457
REMARK  181  A    between atoms: _457  and  _458
REMARK  182  A    between atoms: _457  and  _460
REMARK  183  A    between atoms: _460  and  _461
REMARK  184  A    between atoms: _466  and  _467
REMARK  185  A    between atoms: _469  and  _471
REMARK  186  A    between atoms: _471  and  _472
REMARK  187  A    between atoms: _471  and  _474
REMARK  188  A    between atoms: _474  and  _475
REMARK  189  A    between atoms: _475  and  _476
REMARK  190  A    between atoms: _476  and  _477
REMARK  191  A    between atoms: _477  and  _478
REMARK  192  A    between atoms: _482  and  _484
REMARK  193  A    between atoms: _484  and  _485
REMARK  194  A    between atoms: _484  and  _487
REMARK  195  A    between atoms: _487  and  _488
REMARK  196  A    between atoms: _490  and  _492
REMARK  197  A    between atoms: _492  and  _493
REMARK  198  A    between atoms: _492  and  _495
REMARK  199  A    between atoms: _495  and  _496
REMARK  200  A    between atoms: _499  and  _501
REMARK  201  A    between atoms: _501  and  _502
REMARK  202  A    between atoms: _501  and  _504
REMARK  203  A    between atoms: _504  and  _505
REMARK  204  A    between atoms: _505  and  _506
REMARK  205  A    between atoms: _509  and  _511
REMARK  206  A    between atoms: _511  and  _512
REMARK  207  A    between atoms: _515  and  _517
REMARK  208  A    between atoms: _517  and  _518
REMARK  209  A    between atoms: _517  and  _520
REMARK  210  A    between atoms: _520  and  _521
REMARK  211  A    between atoms: _523  and  _525
REMARK  212  A    between atoms: _525  and  _526
REMARK  213  A    between atoms: _528  and  _530
REMARK  214  A    between atoms: _530  and  _531
REMARK  215  A    between atoms: _530  and  _533
REMARK  216  A    between atoms: _533  and  _534
REMARK  217  A    between atoms: _537  and  _539
REMARK  218  A    between atoms: _539  and  _540
REMARK  219  A    between atoms: _542  and  _544
REMARK  220  A    between atoms: _544  and  _545
REMARK  221  A    between atoms: _544  and  _547
REMARK  222  A    between atoms: _547  and  _548
REMARK  223  A    between atoms: _553  and  _555
REMARK  224  A    between atoms: _555  and  _556
REMARK  225  A    between atoms: _555  and  _558
REMARK  226  A    between atoms: _558  and  _559
REMARK  227  A    between atoms: _559  and  _560
REMARK  228  A    between atoms: _567  and  _568
REMARK  229  A    between atoms: _568  and  _584
REMARK  230  A    between atoms: _569  and  _571
REMARK  231  A    between atoms: _571  and  _572
REMARK  232  A    between atoms: _572  and  _573
REMARK  233  A    between atoms: _577  and  _579
REMARK  234  A    between atoms: _579  and  _580
REMARK  235  A    between atoms: _579  and  _587
REMARK  236  A    between atoms: _580  and  _581
REMARK  237  A    between atoms: _581  and  _582
REMARK  238  A    between atoms: _582  and  _583
REMARK  239  A    between atoms: _583  and  _584
REMARK  240  A    between atoms: _589  and  _591
REMARK  241  A    between atoms: _591  and  _592
REMARK  242  A    between atoms: _591  and  _594
REMARK  243  A    between atoms: _594  and  _595
REMARK  244  A    between atoms: _598  and  _600
REMARK  245  A    between atoms: _600  and  _601
REMARK  246  A    between atoms: _603  and  _605
REMARK  247  A    between atoms: _605  and  _606
REMARK  248  A    between atoms: _609  and  _611
REMARK  249  A    between atoms: _611  and  _612
REMARK  250  A    between atoms: _611  and  _614
REMARK  251  A    between atoms: _614  and  _615
REMARK  252  A    between atoms: _618  and  _620
REMARK  253  A    between atoms: _620  and  _621
REMARK  254  A    between atoms: _620  and  _623
REMARK  255  A    between atoms: _623  and  _624
REMARK  256  A    between atoms: _629  and  _630
REMARK                            x       y       z     vdW  Elec       q    Type
REMARK                         _______ _______ _______ _____ _____    ______ ____
ROOT
ATOM      1  C   LYS A   1      26.079  30.234  27.214  0.00  0.00    +0.238 C 
ATOM      2  N   ARG A   2      27.201  29.947  27.860  0.00  0.00    -0.298 N 
ATOM      3  H   ARG A   2      27.565  28.973  27.874  0.00  0.00    +0.150 HD
ATOM      4  O   LYS A   1      25.615  31.383  27.189  0.00  0.00    -0.274 OA
ENDROOT
BRANCH   1   5
ATOM      5  CA  LYS A   1      25.369  29.099  26.472  0.00  0.00    +0.145 C 
BRANCH   5   6
ATOM      6  N   LYS A   1      24.040  29.622  26.098  0.00  0.00    -0.238 NA
ATOM      7  H   LYS A   1      23.740  30.516  26.536  0.00  0.00    +0.142 HD
ENDBRANCH   5   6
BRANCH   5   8
ATOM      8  CB  LYS A   1      26.184  28.715  25.238  0.00  0.00    +0.026 C 
BRANCH   8   9
ATOM      9  CG  LYS A   1      26.314  29.857  24.214  0.00  0.00    -0.000 C 
BRANCH   9  10
ATOM     10  CD  LYS A   1      26.919  29.401  22.889  0.00  0.00    -0.024 C 
BRANCH  10  11
ATOM     11  CE  LYS A   1      26.025  28.424  22.104  0.00  0.00    -0.086 C 
BRANCH  11  12
ATOM     12  NZ  LYS A   1      26.669  27.062  22.035  0.00  0.00    +0.380 N 
ATOM     13  HZ1 LYS A   1      26.807  26.696  22.999  0.00  0.00    -0.089 HD
ATOM     14  HZ2 LYS A   1      27.589  27.139  21.557  0.00  0.00    -0.089 HD
ATOM     15  HZ3 LYS A   1      26.053  26.415  21.502  0.00  0.00    -0.089 HD
ENDBRANCH  11  12
ENDBRANCH  10  11
ENDBRANCH   9  10
ENDBRANCH   8   9
ENDBRANCH   5   8
ENDBRANCH   1   5
BRANCH   2  16
ATOM     16  CA  ARG A   2      27.920  31.014  28.552  0.00  0.00    +0.137 C 
BRANCH  16  17
ATOM     17  C   ARG A   2      28.346  32.093  27.547  0.00  0.00    +0.227 C 
ATOM     18  O   ARG A   2      28.591  31.795  26.364  0.00  0.00    -0.286 OA
ENDBRANCH  16  17
BRANCH  16  19
ATOM     19  CB  ARG A   2      29.134  30.466  29.318  0.00  0.00    +0.031 C 
BRANCH  19  20
ATOM     20  CG  ARG A   2      28.770  29.534  30.496  0.00  0.00    +0.045 C 
BRANCH  20  21
ATOM     21  CD  ARG A   2      28.215  30.326  31.701  0.00  0.00    +0.174 C 
BRANCH  21  22
ATOM     22  NE  ARG A   2      29.148  31.328  32.225  0.00  0.00    -0.265 N 
ATOM     23  CZ  ARG A   2      29.800  31.205  33.382  0.00  0.00    +0.342 C 
ATOM     24  NH2 ARG A   2      29.628  30.126  34.153  0.00  0.00    -0.292 N 
ATOM     25 HH21 ARG A   2      30.143  30.043  35.053  0.00  0.00    +0.255 HD
ATOM     26 HH22 ARG A   2      28.980  29.370  33.853  0.00  0.00    +0.255 HD
ATOM     27  NH1 ARG A   2      30.625  32.166  33.777  0.00  0.00    -0.292 N 
ATOM     28 HH11 ARG A   2      31.136  32.075  34.678  0.00  0.00    +0.255 HD
ATOM     29 HH12 ARG A   2      30.761  33.010  33.185  0.00  0.00    +0.255 HD
ATOM     30  HE  ARG A   2      29.311  32.186  31.661  0.00  0.00    +0.259 HD
ENDBRANCH  21  22
ENDBRANCH  20  21
ENDBRANCH  19  20
ENDBRANCH  16  19
ENDBRANCH   2  16
TORSDOF 13
REMARK  Name = ../refined-set-2016/3syr/3syr_pocket.pdb
REMARK  256 active torsions:
REMARK  status: ('A' for Active; 'I' for Inactive)
REMARK    1  A    between atoms: _1  and  _3
REMARK    2  A    between atoms: _3  and  _4
REMARK    3  A    between atoms: _3  and  _6
REMARK    4  A    between atoms: _6  and  _7
REMARK    5  A    between atoms: _12  and  _13
REMARK    6  A    between atoms: _15  and  _17
REMARK    7  A    between atoms: _17  and  _18
REMARK    8  A    between atoms: _17  and  _20
REMARK    9  A    between atoms: _20  and  _21
REMARK   10  A    between atoms: _21  and  _22
REMARK   11  A    between atoms: _25  and  _27
REMARK   12  A    between atoms: _27  and  _28
REMARK   13  A    between atoms: _27  and  _30
REMARK   14  A    between atoms: _30  and  _31
REMARK   15  A    between atoms: _36  and  _37
REMARK   16  A    between atoms: _39  and  _41
REMARK   17  A    between atoms: _41  and  _42
REMARK   18  A    between atoms: _41  and  _44
REMARK   19  A    between atoms: _44  and  _45
REMARK   20  A    between atoms: _50  and  _52
REMARK   21  A    between atoms: _52  and  _53
REMARK   22  A    between atoms: _55  and  _57
REMARK   23  A    between atoms: _57  and  _58
REMARK   24  A    between atoms: _60  and  _62
REMARK   25  A    between atoms: _62  and  _63
REMARK   26  A    between atoms: _62  and  _65
REMARK   27  A    between atoms: _65  and  _66
REMARK   28  A    between atoms: _69  and  _71
REMARK   29  A    between atoms: _71  and  _72
REMARK   30  A    between atoms: _74  and  _76
REMARK   31  A    between atoms: _76  and  _77
REMARK   32  A    between atoms: _76  and  _79
REMARK   33  A    between atoms: _79  and  _80
REMARK   34  A    between atoms: _80  and  _81
REMARK   35  A    between atoms: _81  and  _82
REMARK   36  A    between atoms: _91  and  _93
REMARK   37  A    between atoms: _93  and  _94
REMARK   38  A    between atoms: _93  and  _96
REMARK   39  A    between atoms: _96  and  _97
REMARK   40  A    between atoms: _100  and  _102
REMARK   41  A    between atoms: _102  and  _103
REMARK   42  A    between atoms: _106  and  _108
REMARK   43  A    between atoms: _108  and  _109
REMARK   44  A    between atoms: _108  and  _111
REMARK   45  A    between atoms: _111  and  _112
REMARK   46  A    between atoms: _118  and  _120
REMARK   47  A    between atoms: _120  and  _121
REMARK   48  A    between atoms: _120  and  _123
REMARK   49  A    between atoms: _123  and  _124
REMARK   50  A    between atoms: _129  and  _131
REMARK   51  A    between atoms: _131  and  _132
REMARK   52  A    between atoms: _131  and  _134
REMARK   53  A    between atoms: _134  and  _135
REMARK   54  A    between atoms: _138  and  _140
REMARK   55  A    between atoms: _140  and  _141
REMARK   56  A    between atoms: _140  and  _143
REMARK   57  A    between atoms: _143  and  _144
REMARK   58  A    between atoms: _149  and  _151
REMARK   59  A    between atoms: _151  and  _152
REMARK   60  A    between atoms: _151  and  _154
REMARK   61  A    between atoms: _154  and  _155
REMARK   62  A    between atoms: _161  and  _163
REMARK   63  A    between atoms: _163  and  _164
REMARK   64  A    between atoms: _163  and  _166
REMARK   65  A    between atoms: _166  and  _167
REMARK   66  A    between atoms: _173  and  _175
REMARK   67  A    between atoms: _175  and  _176
REMARK   68  A    between atoms: _175  and  _178
REMARK   69  A    between atoms: _178  and  _179
REMARK   70  A    between atoms: _179  and  _180
REMARK   71  A    between atoms: _180  and  _181
REMARK   72  A    between atoms: _190  and  _192
REMARK   73  A    between atoms: _192  and  _193
REMARK   74  A    between atoms: _192  and  _195
REMARK   75  A    between atoms: _195  and  _196
REMARK   76  A    between atoms: _201  and  _203
REMARK   77  A    between atoms: _203  and  _204
REMARK   78  A    between atoms: _203  and  _206
REMARK   79  A    between atoms: _206  and  _207
REMARK   80  A    between atoms: _210  and  _212
REMARK   81  A    between atoms: _212  and  _213
REMARK   82  A    between atoms: _212  and  _215
REMARK   83  A    between atoms: _215  and  _216
REMARK   84  A    between atoms: _219  and  _221
REMARK   85  A    between atoms: _221  and  _222
REMARK   86  A    between atoms: _221  and  _224
REMARK   87  A    between atoms: _224  and  _225
REMARK   88  A    between atoms: _230  and  _232
REMARK   89  A    between atoms: _232  and  _233
REMARK   90  A    between atoms: _232  and  _235
REMARK   91  A    between atoms: _235  and  _236
REMARK   92  A    between atoms: _241  and  _242
REMARK   93  A    between atoms: _244  and  _246
REMARK   94  A    between atoms: _246  and  _247
REMARK   95  A    between atoms: _246  and  _249
REMARK   96  A    between atoms: _249  and  _250
REMARK   97  A    between atoms: _253  and  _255
REMARK   98  A    between atoms: _255  and  _256
REMARK   99  A    between atoms: _255  and  _258
REMARK  100  A    between atoms: _258  and  _259
REMARK  101  A    between atoms: _264  and  _266
REMARK  102  A    between atoms: _266  and  _267
REMARK  103  A    between atoms: _266  and  _269
REMARK  104  A    between atoms: _269  and  _270
REMARK  105  A    between atoms: _275  and  _277
REMARK  106  A    between atoms: _277  and  _278
REMARK  107  A    between atoms: _277  and  _280
REMARK  108  A    between atoms: _280  and  _281
REMARK  109  A    between atoms: _284  and  _286
REMARK  110  A    between atoms: _286  and  _287
REMARK  111  A    between atoms: _286  and  _289
REMARK  112  A    between atoms: _292  and  _294
REMARK  113  A    between atoms: _294  and  _295
REMARK  114  A    between atoms: _294  and  _297
REMARK  115  A    between atoms: _297  and  _298
REMARK  116  A    between atoms: _301  and  _303
REMARK  117  A    between atoms: _303  and  _304
REMARK  118  A    between atoms: _307  and  _309
REMARK  119  A    between atoms: _309  and  _310
REMARK  120  A    between atoms: _309  and  _312
REMARK  121  A    between atoms: _312  and  _313
REMARK  122  A    between atoms: _316  and  _318
REMARK  123  A    between atoms: _318  and  _319
REMARK  124  A    between atoms: _318  and  _321
REMARK  125  A    between atoms: _321  and  _322
REMARK  126  A    between atoms: _322  and  _323
REMARK  127  A    between atoms: _326  and  _328
REMARK  128  A    between atoms: _328  and  _329
REMARK  129  A    between atoms: _328  and  _331
REMARK  130  A    between atoms: _331  and  _332
REMARK  131  A    between atoms: _337  and  _339
REMARK  132  A    between atoms: _339  and  _340
REMARK  133  A    between atoms: _342  and  _344
REMARK  134  A    between atoms: _344  and  _345
REMARK  135  A    between atoms: _344  and  _347
REMARK  136  A    between atoms: _350  and  _352
REMARK  137  A    between atoms: _352  and  _353
REMARK  138  A    between atoms: _356  and  _358
REMARK  139  A    between atoms: _358  and  _359
REMARK  140  A    between atoms: _358  and  _361
REMARK  141  A    between atoms: _361  and  _362
REMARK  142  A    between atoms: _367  and  _369
REMARK  143  A    between atoms: _369  and  _370
REMARK  144  A    between atoms: _369  and  _372
REMARK  145  A    between atoms: _372  and  _373
REMARK  146  A    between atoms: _373  and  _374
REMARK  147  A    between atoms: _374  and  _375
REMARK  148  A    between atoms: _375  and  _376
REMARK  149  A    between atoms: _380  and  _382
REMARK  150  A    between atoms: _382  and  _383
REMARK  151  A    between atoms: _382  and  _385
REMARK  152  A    between atoms: _385  and  _386
REMARK  153  A    between atoms: _389  and  _391
REMARK  154  A    between atoms: _391  and  _392
REMARK  155  A    between atoms: _391  and  _394
REMARK  156  A    between atoms: _394  and  _395
REMARK  157  A    between atoms: _400  and  _402
REMARK  158  A    between atoms: _402  and  _403
REMARK  159  A    between atoms: _405  and  _407
REMARK  160  A    between atoms: _407  and  _408
REMARK  161  A    between atoms: _407  and  _410
REMARK  162  A    between atoms: _410  and  _411
REMARK  163  A    between atoms: _414  and  _416
REMARK  164  A    between atoms: _416  and  _417
REMARK  165  A    between atoms: _416  and  _419
REMARK  166  A    between atoms: _419  and  _420
REMARK  167  A    between atoms: _420  and  _421
REMARK  168  A    between atoms: _421  and  _422
REMARK  169  A    between atoms: _422  and  _423
REMARK  170  A    between atoms: _427  and  _429
REMARK  171  A    between atoms: _429  and  _430
REMARK  172  A    between atoms: _429  and  _432
REMARK  173  A    between atoms: _432  and  _433
REMARK  174  A    between atoms: _433  and  _434
REMARK  175  A    between atoms: _434  and  _435
REMARK  176  A    between atoms: _444  and  _446
REMARK  177  A    between atoms: _446  and  _447
REMARK  178  A    between atoms: _446  and  _449
REMARK  179  A    between atoms: _449  and  _450
REMARK  180  A    between atoms: _455  and  _457
REMARK  181  A    between atoms: _457  and  _458
REMARK  182  A    between atoms: _457  and  _460
REMARK  183  A    between atoms: _460  and  _461
REMARK  184  A    between atoms: _466  and  _467
REMARK  185  A    between atoms: _469  and  _471
REMARK  186  A    between atoms: _471  and  _472
REMARK  187  A    between atoms: _471  and  _474
REMARK  188  A    between atoms: _474  and  _475
REMARK  189  A    between atoms: _475  and  _476
REMARK  190  A    between atoms: _476  and  _477
REMARK  191  A    between atoms: _477  and  _478
REMARK  192  A    between atoms: _482  and  _484
REMARK  193  A    between atoms: _484  and  _485
REMARK  194  A    between atoms: _484  and  _487
REMARK  195  A    between atoms: _487  and  _488
REMARK  196  A    between atoms: _490  and  _492
REMARK  197  A    between atoms: _492  and  _493
REMARK  198  A    between atoms: _492  and  _495
REMARK  199  A    between atoms: _495  and  _496
REMARK  200  A    between atoms: _499  and  _501
REMARK  201  A    between atoms: _501  and  _502
REMARK  202  A    between atoms: _501  and  _504
REMARK  203  A    between atoms: _504  and  _505
REMARK  204  A    between atoms: _505  and  _506
REMARK  205  A    between atoms: _509  and  _511
REMARK  206  A    between atoms: _511  and  _512
REMARK  207  A    between atoms: _515  and  _517
REMARK  208  A    between atoms: _517  and  _518
REMARK  209  A    between atoms: _517  and  _520
REMARK  210  A    between atoms: _520  and  _521
REMARK  211  A    between atoms: _523  and  _525
REMARK  212  A    between atoms: _525  and  _526
REMARK  213  A    between atoms: _528  and  _530
REMARK  214  A    between atoms: _530  and  _531
REMARK  215  A    between atoms: _530  and  _533
REMARK  216  A    between atoms: _533  and  _534
REMARK  217  A    between atoms: _537  and  _539
REMARK  218  A    between atoms: _539  and  _540
REMARK  219  A    between atoms: _542  and  _544
REMARK  220  A    between atoms: _544  and  _545
REMARK  221  A    between atoms: _544  and  _547
REMARK  222  A    between atoms: _547  and  _548
REMARK  223  A    between atoms: _553  and  _555
REMARK  224  A    between atoms: _555  and  _556
REMARK  225  A    between atoms: _555  and  _558
REMARK  226  A    between atoms: _558  and  _559
REMARK  227  A    between atoms: _559  and  _560
REMARK  228  A    between atoms: _567  and  _568
REMARK  229  A    between atoms: _568  and  _584
REMARK  230  A    between atoms: _569  and  _571
REMARK  231  A    between atoms: _571  and  _572
REMARK  232  A    between atoms: _572  and  _573
REMARK  233  A    between atoms: _577  and  _579
REMARK  234  A    between atoms: _579  and  _580
REMARK  235  A    between atoms: _579  and  _587
REMARK  236  A    between atoms: _580  and  _581
REMARK  237  A    between atoms: _581  and  _582
REMARK  238  A    between atoms: _582  and  _583
REMARK  239  A    between atoms: _583  and  _584
REMARK  240  A    between atoms: _589  and  _591
REMARK  241  A    between atoms: _591  and  _592
REMARK  242  A    between atoms: _591  and  _594
REMARK  243  A    between atoms: _594  and  _595
REMARK  244  A    between atoms: _598  and  _600
REMARK  245  A    between atoms: _600  and  _601
REMARK  246  A    between atoms: _603  and  _605
REMARK  247  A    between atoms: _605  and  _606
REMARK  248  A    between atoms: _609  and  _611
REMARK  249  A    between atoms: _611  and  _612
REMARK  250  A    between atoms: _611  and  _614
REMARK  251  A    between atoms: _614  and  _615
REMARK  252  A    between atoms: _618  and  _620
REMARK  253  A    between atoms: _620  and  _621
REMARK  254  A    between atoms: _620  and  _623
REMARK  255  A    between atoms: _623  and  _624
REMARK  256  A    between atoms: _629  and  _630
REMARK                            x       y       z     vdW  Elec       q    Type
REMARK                         _______ _______ _______ _____ _____    ______ ____
ROOT
ATOM      1  CB  HIS A   1      32.978  32.713  25.883  0.00  0.00    +0.072 C 
ENDROOT
BRANCH   1   2
ATOM      2  CG  HIS A   1      34.455  32.715  26.133  0.00  0.00    +0.082 A 
ATOM      3  CD2 HIS A   1      35.173  32.379  27.233  0.00  0.00    +0.115 A 
ATOM      4  NE2 HIS A   1      36.499  32.595  26.930  0.00  0.00    -0.221 NA
ATOM      5  CE1 HIS A   1      36.593  33.057  25.691  0.00  0.00    +0.199 A 
ATOM      6  ND1 HIS A   1      35.374  33.143  25.187  0.00  0.00    -0.227 NA
ENDBRANCH   1   2
BRANCH   1   7
ATOM      7  CA  HIS A   1      32.387  34.127  25.675  0.00  0.00    +0.139 C 
BRANCH   7   8
ATOM      8  N   HIS A   1      30.959  34.133  25.911  0.00  0.00    -0.239 NA
ATOM      9  H   HIS A   1      30.318  33.925  25.119  0.00  0.00    +0.142 HD
ENDBRANCH   7   8
BRANCH   7  10
ATOM     10  C   HIS A   1      32.627  34.614  24.250  0.00  0.00    +0.224 C 
ATOM     11  O   HIS A   1      31.839  34.314  23.352  0.00  0.00    -0.287 OA
ENDBRANCH   7  10
ENDBRANCH   1   7
TORSDOF 4
REMARK  Name = ../refined-set-2016/3syr/3syr_pocket.pdb
REMARK  256 active torsions:
REMARK  status: ('A' for Active; 'I' for Inactive)
REMARK    1  A    between atoms: _1  and  _3
REMARK    2  A    between atoms: _3  and  _4
REMARK    3  A    between atoms: _3  and  _6
REMARK    4  A    between atoms: _6  and  _7
REMARK    5  A    between atoms: _12  and  _13
REMARK    6  A    between atoms: _15  and  _17
REMARK    7  A    between atoms: _17  and  _18
REMARK    8  A    between atoms: _17  and  _20
REMARK    9  A    between atoms: _20  and  _21
REMARK   10  A    between atoms: _21  and  _22
REMARK   11  A    between atoms: _25  and  _27
REMARK   12  A    between atoms: _27  and  _28
REMARK   13  A    between atoms: _27  and  _30
REMARK   14  A    between atoms: _30  and  _31
REMARK   15  A    between atoms: _36  and  _37
REMARK   16  A    between atoms: _39  and  _41
REMARK   17  A    between atoms: _41  and  _42
REMARK   18  A    between atoms: _41  and  _44
REMARK   19  A    between atoms: _44  and  _45
REMARK   20  A    between atoms: _50  and  _52
REMARK   21  A    between atoms: _52  and  _53
REMARK   22  A    between atoms: _55  and  _57
REMARK   23  A    between atoms: _57  and  _58
REMARK   24  A    between atoms: _60  and  _62
REMARK   25  A    between atoms: _62  and  _63
REMARK   26  A    between atoms: _62  and  _65
REMARK   27  A    between atoms: _65  and  _66
REMARK   28  A    between atoms: _69  and  _71
REMARK   29  A    between atoms: _71  and  _72
REMARK   30  A    between atoms: _74  and  _76
REMARK   31  A    between atoms: _76  and  _77
REMARK   32  A    between atoms: _76  and  _79
REMARK   33  A    between atoms: _79  and  _80
REMARK   34  A    between atoms: _80  and  _81
REMARK   35  A    between atoms: _81  and  _82
REMARK   36  A    between atoms: _91  and  _93
REMARK   37  A    between atoms: _93  and  _94
REMARK   38  A    between atoms: _93  and  _96
REMARK   39  A    between atoms: _96  and  _97
REMARK   40  A    between atoms: _100  and  _102
REMARK   41  A    between atoms: _102  and  _103
REMARK   42  A    between atoms: _106  and  _108
REMARK   43  A    between atoms: _108  and  _109
REMARK   44  A    between atoms: _108  and  _111
REMARK   45  A    between atoms: _111  and  _112
REMARK   46  A    between atoms: _118  and  _120
REMARK   47  A    between atoms: _120  and  _121
REMARK   48  A    between atoms: _120  and  _123
REMARK   49  A    between atoms: _123  and  _124
REMARK   50  A    between atoms: _129  and  _131
REMARK   51  A    between atoms: _131  and  _132
REMARK   52  A    between atoms: _131  and  _134
REMARK   53  A    between atoms: _134  and  _135
REMARK   54  A    between atoms: _138  and  _140
REMARK   55  A    between atoms: _140  and  _141
REMARK   56  A    between atoms: _140  and  _143
REMARK   57  A    between atoms: _143  and  _144
REMARK   58  A    between atoms: _149  and  _151
REMARK   59  A    between atoms: _151  and  _152
REMARK   60  A    between atoms: _151  and  _154
REMARK   61  A    between atoms: _154  and  _155
REMARK   62  A    between atoms: _161  and  _163
REMARK   63  A    between atoms: _163  and  _164
REMARK   64  A    between atoms: _163  and  _166
REMARK   65  A    between atoms: _166  and  _167
REMARK   66  A    between atoms: _173  and  _175
REMARK   67  A    between atoms: _175  and  _176
REMARK   68  A    between atoms: _175  and  _178
REMARK   69  A    between atoms: _178  and  _179
REMARK   70  A    between atoms: _179  and  _180
REMARK   71  A    between atoms: _180  and  _181
REMARK   72  A    between atoms: _190  and  _192
REMARK   73  A    between atoms: _192  and  _193
REMARK   74  A    between atoms: _192  and  _195
REMARK   75  A    between atoms: _195  and  _196
REMARK   76  A    between atoms: _201  and  _203
REMARK   77  A    between atoms: _203  and  _204
REMARK   78  A    between atoms: _203  and  _206
REMARK   79  A    between atoms: _206  and  _207
REMARK   80  A    between atoms: _210  and  _212
REMARK   81  A    between atoms: _212  and  _213
REMARK   82  A    between atoms: _212  and  _215
REMARK   83  A    between atoms: _215  and  _216
REMARK   84  A    between atoms: _219  and  _221
REMARK   85  A    between atoms: _221  and  _222
REMARK   86  A    between atoms: _221  and  _224
REMARK   87  A    between atoms: _224  and  _225
REMARK   88  A    between atoms: _230  and  _232
REMARK   89  A    between atoms: _232  and  _233
REMARK   90  A    between atoms: _232  and  _235
REMARK   91  A    between atoms: _235  and  _236
REMARK   92  A    between atoms: _241  and  _242
REMARK   93  A    between atoms: _244  and  _246
REMARK   94  A    between atoms: _246  and  _247
REMARK   95  A    between atoms: _246  and  _249
REMARK   96  A    between atoms: _249  and  _250
REMARK   97  A    between atoms: _253  and  _255
REMARK   98  A    between atoms: _255  and  _256
REMARK   99  A    between atoms: _255  and  _258
REMARK  100  A    between atoms: _258  and  _259
REMARK  101  A    between atoms: _264  and  _266
REMARK  102  A    between atoms: _266  and  _267
REMARK  103  A    between atoms: _266  and  _269
REMARK  104  A    between atoms: _269  and  _270
REMARK  105  A    between atoms: _275  and  _277
REMARK  106  A    between atoms: _277  and  _278
REMARK  107  A    between atoms: _277  and  _280
REMARK  108  A    between atoms: _280  and  _281
REMARK  109  A    between atoms: _284  and  _286
REMARK  110  A    between atoms: _286  and  _287
REMARK  111  A    between atoms: _286  and  _289
REMARK  112  A    between atoms: _292  and  _294
REMARK  113  A    between atoms: _294  and  _295
REMARK  114  A    between atoms: _294  and  _297
REMARK  115  A    between atoms: _297  and  _298
REMARK  116  A    between atoms: _301  and  _303
REMARK  117  A    between atoms: _303  and  _304
REMARK  118  A    between atoms: _307  and  _309
REMARK  119  A    between atoms: _309  and  _310
REMARK  120  A    between atoms: _309  and  _312
REMARK  121  A    between atoms: _312  and  _313
REMARK  122  A    between atoms: _316  and  _318
REMARK  123  A    between atoms: _318  and  _319
REMARK  124  A    between atoms: _318  and  _321
REMARK  125  A    between atoms: _321  and  _322
REMARK  126  A    between atoms: _322  and  _323
REMARK  127  A    between atoms: _326  and  _328
REMARK  128  A    between atoms: _328  and  _329
REMARK  129  A    between atoms: _328  and  _331
REMARK  130  A    between atoms: _331  and  _332
REMARK  131  A    between atoms: _337  and  _339
REMARK  132  A    between atoms: _339  and  _340
REMARK  133  A    between atoms: _342  and  _344
REMARK  134  A    between atoms: _344  and  _345
REMARK  135  A    between atoms: _344  and  _347
REMARK  136  A    between atoms: _350  and  _352
REMARK  137  A    between atoms: _352  and  _353
REMARK  138  A    between atoms: _356  and  _358
REMARK  139  A    between atoms: _358  and  _359
REMARK  140  A    between atoms: _358  and  _361
REMARK  141  A    between atoms: _361  and  _362
REMARK  142  A    between atoms: _367  and  _369
REMARK  143  A    between atoms: _369  and  _370
REMARK  144  A    between atoms: _369  and  _372
REMARK  145  A    between atoms: _372  and  _373
REMARK  146  A    between atoms: _373  and  _374
REMARK  147  A    between atoms: _374  and  _375
REMARK  148  A    between atoms: _375  and  _376
REMARK  149  A    between atoms: _380  and  _382
REMARK  150  A    between atoms: _382  and  _383
REMARK  151  A    between atoms: _382  and  _385
REMARK  152  A    between atoms: _385  and  _386
REMARK  153  A    between atoms: _389  and  _391
REMARK  154  A    between atoms: _391  and  _392
REMARK  155  A    between atoms: _391  and  _394
REMARK  156  A    between atoms: _394  and  _395
REMARK  157  A    between atoms: _400  and  _402
REMARK  158  A    between atoms: _402  and  _403
REMARK  159  A    between atoms: _405  and  _407
REMARK  160  A    between atoms: _407  and  _408
REMARK  161  A    between atoms: _407  and  _410
REMARK  162  A    between atoms: _410  and  _411
REMARK  163  A    between atoms: _414  and  _416
REMARK  164  A    between atoms: _416  and  _417
REMARK  165  A    between atoms: _416  and  _419
REMARK  166  A    between atoms: _419  and  _420
REMARK  167  A    between atoms: _420  and  _421
REMARK  168  A    between atoms: _421  and  _422
REMARK  169  A    between atoms: _422  and  _423
REMARK  170  A    between atoms: _427  and  _429
REMARK  171  A    between atoms: _429  and  _430
REMARK  172  A    between atoms: _429  and  _432
REMARK  173  A    between atoms: _432  and  _433
REMARK  174  A    between atoms: _433  and  _434
REMARK  175  A    between atoms: _434  and  _435
REMARK  176  A    between atoms: _444  and  _446
REMARK  177  A    between atoms: _446  and  _447
REMARK  178  A    between atoms: _446  and  _449
REMARK  179  A    between atoms: _449  and  _450
REMARK  180  A    between atoms: _455  and  _457
REMARK  181  A    between atoms: _457  and  _458
REMARK  182  A    between atoms: _457  and  _460
REMARK  183  A    between atoms: _460  and  _461
REMARK  184  A    between atoms: _466  and  _467
REMARK  185  A    between atoms: _469  and  _471
REMARK  186  A    between atoms: _471  and  _472
REMARK  187  A    between atoms: _471  and  _474
REMARK  188  A    between atoms: _474  and  _475
REMARK  189  A    between atoms: _475  and  _476
REMARK  190  A    between atoms: _476  and  _477
REMARK  191  A    between atoms: _477  and  _478
REMARK  192  A    between atoms: _482  and  _484
REMARK  193  A    between atoms: _484  and  _485
REMARK  194  A    between atoms: _484  and  _487
REMARK  195  A    between atoms: _487  and  _488
REMARK  196  A    between atoms: _490  and  _492
REMARK  197  A    between atoms: _492  and  _493
REMARK  198  A    between atoms: _492  and  _495
REMARK  199  A    between atoms: _495  and  _496
REMARK  200  A    between atoms: _499  and  _501
REMARK  201  A    between atoms: _501  and  _502
REMARK  202  A    between atoms: _501  and  _504
REMARK  203  A    between atoms: _504  and  _505
REMARK  204  A    between atoms: _505  and  _506
REMARK  205  A    between atoms: _509  and  _511
REMARK  206  A    between atoms: _511  and  _512
REMARK  207  A    between atoms: _515  and  _517
REMARK  208  A    between atoms: _517  and  _518
REMARK  209  A    between atoms: _517  and  _520
REMARK  210  A    between atoms: _520  and  _521
REMARK  211  A    between atoms: _523  and  _525
REMARK  212  A    between atoms: _525  and  _526
REMARK  213  A    between atoms: _528  and  _530
REMARK  214  A    between atoms: _530  and  _531
REMARK  215  A    between atoms: _530  and  _533
REMARK  216  A    between atoms: _533  and  _534
REMARK  217  A    between atoms: _537  and  _539
REMARK  218  A    between atoms: _539  and  _540
REMARK  219  A    between atoms: _542  and  _544
REMARK  220  A    between atoms: _544  and  _545
REMARK  221  A    between atoms: _544  and  _547
REMARK  222  A    between atoms: _547  and  _548
REMARK  223  A    between atoms: _553  and  _555
REMARK  224  A    between atoms: _555  and  _556
REMARK  225  A    between atoms: _555  and  _558
REMARK  226  A    between atoms: _558  and  _559
REMARK  227  A    between atoms: _559  and  _560
REMARK  228  A    between atoms: _567  and  _568
REMARK  229  A    between atoms: _568  and  _584
REMARK  230  A    between atoms: _569  and  _571
REMARK  231  A    between atoms: _571  and  _572
REMARK  232  A    between atoms: _572  and  _573
REMARK  233  A    between atoms: _577  and  _579
REMARK  234  A    between atoms: _579  and  _580
REMARK  235  A    between atoms: _579  and  _587
REMARK  236  A    between atoms: _580  and  _581
REMARK  237  A    between atoms: _581  and  _582
REMARK  238  A    between atoms: _582  and  _583
REMARK  239  A    between atoms: _583  and  _584
REMARK  240  A    between atoms: _589  and  _591
REMARK  241  A    between atoms: _591  and  _592
REMARK  242  A    between atoms: _591  and  _594
REMARK  243  A    between atoms: _594  and  _595
REMARK  244  A    between atoms: _598  and  _600
REMARK  245  A    between atoms: _600  and  _601
REMARK  246  A    between atoms: _603  and  _605
REMARK  247  A    between atoms: _605  and  _606
REMARK  248  A    between atoms: _609  and  _611
REMARK  249  A    between atoms: _611  and  _612
REMARK  250  A    between atoms: _611  and  _614
REMARK  251  A    between atoms: _614  and  _615
REMARK  252  A    between atoms: _618  and  _620
REMARK  253  A    between atoms: _620  and  _621
REMARK  254  A    between atoms: _620  and  _623
REMARK  255  A    between atoms: _623  and  _624
REMARK  256  A    between atoms: _629  and  _630
REMARK                            x       y       z     vdW  Elec       q    Type
REMARK                         _______ _______ _______ _____ _____    ______ ____
ROOT
ATOM      1  C   TYR A   1      33.512  31.933  20.596  0.00  0.00    +0.239 C 
ATOM      2  N   LYS A   2      32.489  32.048  21.434  0.00  0.00    -0.298 N 
ATOM      3  H   LYS A   2      32.639  32.503  22.357  0.00  0.00    +0.150 HD
ATOM      4  O   TYR A   1      33.410  31.414  19.481  0.00  0.00    -0.274 OA
ENDROOT
BRANCH   1   5
ATOM      5  CA  TYR A   1      34.851  32.499  21.068  0.00  0.00    +0.149 C 
BRANCH   5   6
ATOM      6  N   TYR A   1      34.694  33.600  22.019  0.00  0.00    -0.238 NA
ATOM      7  H   TYR A   1      35.019  33.482  23.000  0.00  0.00    +0.142 HD
ENDBRANCH   5   6
BRANCH   5   8
ATOM      8  CB  TYR A   1      35.785  31.403  21.613  0.00  0.00    +0.053 C 
BRANCH   8   9
ATOM      9  CG  TYR A   1      35.159  30.278  22.398  0.00  0.00    -0.020 A 
ATOM     10  CD2 TYR A   1      35.207  30.254  23.799  0.00  0.00    -0.001 A 
ATOM     11  CE2 TYR A   1      34.656  29.193  24.529  0.00  0.00    +0.036 A 
ATOM     12  CZ  TYR A   1      34.089  28.118  23.842  0.00  0.00    +0.134 A 
ATOM     13  CE1 TYR A   1      34.067  28.112  22.445  0.00  0.00    +0.036 A 
ATOM     14  CD1 TYR A   1      34.595  29.180  21.739  0.00  0.00    -0.001 A 
BRANCH  12  15
ATOM     15  OH  TYR A   1      33.541  27.042  24.516  0.00  0.00    -0.506 OA
ATOM     16  HH  TYR A   1      33.192  26.387  23.861  0.00  0.00    +0.292 HD
ENDBRANCH  12  15
ENDBRANCH   8   9
ENDBRANCH   5   8
ENDBRANCH   1   5
BRANCH   2  17
ATOM     17  CA  LYS A   2      31.158  31.553  21.094  0.00  0.00    +0.137 C 
BRANCH  17  18
ATOM     18  C   LYS A   2      30.429  32.511  20.101  0.00  0.00    +0.227 C 
ATOM     19  O   LYS A   2      29.451  32.122  19.451  0.00  0.00    -0.286 OA
ENDBRANCH  17  18
BRANCH  17  20
ATOM     20  CB  LYS A   2      30.357  31.313  22.377  0.00  0.00    +0.028 C 
BRANCH  20  21
ATOM     21  CG  LYS A   2      30.796  30.090  23.177  0.00  0.00    -0.000 C 
BRANCH  21  22
ATOM     22  CD  LYS A   2      30.367  30.208  24.653  0.00  0.00    -0.024 C 
BRANCH  22  23
ATOM     23  CE  LYS A   2      30.813  29.024  25.522  0.00  0.00    -0.086 C 
BRANCH  23  24
ATOM     24  NZ  LYS A   2      30.228  27.696  25.076  0.00  0.00    +0.380 N 
ATOM     25  HZ1 LYS A   2      30.569  26.940  25.704  0.00  0.00    -0.089 HD
ATOM     26  HZ2 LYS A   2      29.190  27.744  25.120  0.00  0.00    -0.089 HD
ATOM     27  HZ3 LYS A   2      30.526  27.498  24.100  0.00  0.00    -0.089 HD
ENDBRANCH  23  24
ENDBRANCH  22  23
ENDBRANCH  21  22
ENDBRANCH  20  21
ENDBRANCH  17  20
ENDBRANCH   2  17
TORSDOF 12
REMARK  Name = ../refined-set-2016/3syr/3syr_pocket.pdb
REMARK  256 active torsions:
REMARK  status: ('A' for Active; 'I' for Inactive)
REMARK    1  A    between atoms: _1  and  _3
REMARK    2  A    between atoms: _3  and  _4
REMARK    3  A    between atoms: _3  and  _6
REMARK    4  A    between atoms: _6  and  _7
REMARK    5  A    between atoms: _12  and  _13
REMARK    6  A    between atoms: _15  and  _17
REMARK    7  A    between atoms: _17  and  _18
REMARK    8  A    between atoms: _17  and  _20
REMARK    9  A    between atoms: _20  and  _21
REMARK   10  A    between atoms: _21  and  _22
REMARK   11  A    between atoms: _25  and  _27
REMARK   12  A    between atoms: _27  and  _28
REMARK   13  A    between atoms: _27  and  _30
REMARK   14  A    between atoms: _30  and  _31
REMARK   15  A    between atoms: _36  and  _37
REMARK   16  A    between atoms: _39  and  _41
REMARK   17  A    between atoms: _41  and  _42
REMARK   18  A    between atoms: _41  and  _44
REMARK   19  A    between atoms: _44  and  _45
REMARK   20  A    between atoms: _50  and  _52
REMARK   21  A    between atoms: _52  and  _53
REMARK   22  A    between atoms: _55  and  _57
REMARK   23  A    between atoms: _57  and  _58
REMARK   24  A    between atoms: _60  and  _62
REMARK   25  A    between atoms: _62  and  _63
REMARK   26  A    between atoms: _62  and  _65
REMARK   27  A    between atoms: _65  and  _66
REMARK   28  A    between atoms: _69  and  _71
REMARK   29  A    between atoms: _71  and  _72
REMARK   30  A    between atoms: _74  and  _76
REMARK   31  A    between atoms: _76  and  _77
REMARK   32  A    between atoms: _76  and  _79
REMARK   33  A    between atoms: _79  and  _80
REMARK   34  A    between atoms: _80  and  _81
REMARK   35  A    between atoms: _81  and  _82
REMARK   36  A    between atoms: _91  and  _93
REMARK   37  A    between atoms: _93  and  _94
REMARK   38  A    between atoms: _93  and  _96
REMARK   39  A    between atoms: _96  and  _97
REMARK   40  A    between atoms: _100  and  _102
REMARK   41  A    between atoms: _102  and  _103
REMARK   42  A    between atoms: _106  and  _108
REMARK   43  A    between atoms: _108  and  _109
REMARK   44  A    between atoms: _108  and  _111
REMARK   45  A    between atoms: _111  and  _112
REMARK   46  A    between atoms: _118  and  _120
REMARK   47  A    between atoms: _120  and  _121
REMARK   48  A    between atoms: _120  and  _123
REMARK   49  A    between atoms: _123  and  _124
REMARK   50  A    between atoms: _129  and  _131
REMARK   51  A    between atoms: _131  and  _132
REMARK   52  A    between atoms: _131  and  _134
REMARK   53  A    between atoms: _134  and  _135
REMARK   54  A    between atoms: _138  and  _140
REMARK   55  A    between atoms: _140  and  _141
REMARK   56  A    between atoms: _140  and  _143
REMARK   57  A    between atoms: _143  and  _144
REMARK   58  A    between atoms: _149  and  _151
REMARK   59  A    between atoms: _151  and  _152
REMARK   60  A    between atoms: _151  and  _154
REMARK   61  A    between atoms: _154  and  _155
REMARK   62  A    between atoms: _161  and  _163
REMARK   63  A    between atoms: _163  and  _164
REMARK   64  A    between atoms: _163  and  _166
REMARK   65  A    between atoms: _166  and  _167
REMARK   66  A    between atoms: _173  and  _175
REMARK   67  A    between atoms: _175  and  _176
REMARK   68  A    between atoms: _175  and  _178
REMARK   69  A    between atoms: _178  and  _179
REMARK   70  A    between atoms: _179  and  _180
REMARK   71  A    between atoms: _180  and  _181
REMARK   72  A    between atoms: _190  and  _192
REMARK   73  A    between atoms: _192  and  _193
REMARK   74  A    between atoms: _192  and  _195
REMARK   75  A    between atoms: _195  and  _196
REMARK   76  A    between atoms: _201  and  _203
REMARK   77  A    between atoms: _203  and  _204
REMARK   78  A    between atoms: _203  and  _206
REMARK   79  A    between atoms: _206  and  _207
REMARK   80  A    between atoms: _210  and  _212
REMARK   81  A    between atoms: _212  and  _213
REMARK   82  A    between atoms: _212  and  _215
REMARK   83  A    between atoms: _215  and  _216
REMARK   84  A    between atoms: _219  and  _221
REMARK   85  A    between atoms: _221  and  _222
REMARK   86  A    between atoms: _221  and  _224
REMARK   87  A    between atoms: _224  and  _225
REMARK   88  A    between atoms: _230  and  _232
REMARK   89  A    between atoms: _232  and  _233
REMARK   90  A    between atoms: _232  and  _235
REMARK   91  A    between atoms: _235  and  _236
REMARK   92  A    between atoms: _241  and  _242
REMARK   93  A    between atoms: _244  and  _246
REMARK   94  A    between atoms: _246  and  _247
REMARK   95  A    between atoms: _246  and  _249
REMARK   96  A    between atoms: _249  and  _250
REMARK   97  A    between atoms: _253  and  _255
REMARK   98  A    between atoms: _255  and  _256
REMARK   99  A    between atoms: _255  and  _258
REMARK  100  A    between atoms: _258  and  _259
REMARK  101  A    between atoms: _264  and  _266
REMARK  102  A    between atoms: _266  and  _267
REMARK  103  A    between atoms: _266  and  _269
REMARK  104  A    between atoms: _269  and  _270
REMARK  105  A    between atoms: _275  and  _277
REMARK  106  A    between atoms: _277  and  _278
REMARK  107  A    between atoms: _277  and  _280
REMARK  108  A    between atoms: _280  and  _281
REMARK  109  A    between atoms: _284  and  _286
REMARK  110  A    between atoms: _286  and  _287
REMARK  111  A    between atoms: _286  and  _289
REMARK  112  A    between atoms: _292  and  _294
REMARK  113  A    between atoms: _294  and  _295
REMARK  114  A    between atoms: _294  and  _297
REMARK  115  A    between atoms: _297  and  _298
REMARK  116  A    between atoms: _301  and  _303
REMARK  117  A    between atoms: _303  and  _304
REMARK  118  A    between atoms: _307  and  _309
REMARK  119  A    between atoms: _309  and  _310
REMARK  120  A    between atoms: _309  and  _312
REMARK  121  A    between atoms: _312  and  _313
REMARK  122  A    between atoms: _316  and  _318
REMARK  123  A    between atoms: _318  and  _319
REMARK  124  A    between atoms: _318  and  _321
REMARK  125  A    between atoms: _321  and  _322
REMARK  126  A    between atoms: _322  and  _323
REMARK  127  A    between atoms: _326  and  _328
REMARK  128  A    between atoms: _328  and  _329
REMARK  129  A    between atoms: _328  and  _331
REMARK  130  A    between atoms: _331  and  _332
REMARK  131  A    between atoms: _337  and  _339
REMARK  132  A    between atoms: _339  and  _340
REMARK  133  A    between atoms: _342  and  _344
REMARK  134  A    between atoms: _344  and  _345
REMARK  135  A    between atoms: _344  and  _347
REMARK  136  A    between atoms: _350  and  _352
REMARK  137  A    between atoms: _352  and  _353
REMARK  138  A    between atoms: _356  and  _358
REMARK  139  A    between atoms: _358  and  _359
REMARK  140  A    between atoms: _358  and  _361
REMARK  141  A    between atoms: _361  and  _362
REMARK  142  A    between atoms: _367  and  _369
REMARK  143  A    between atoms: _369  and  _370
REMARK  144  A    between atoms: _369  and  _372
REMARK  145  A    between atoms: _372  and  _373
REMARK  146  A    between atoms: _373  and  _374
REMARK  147  A    between atoms: _374  and  _375
REMARK  148  A    between atoms: _375  and  _376
REMARK  149  A    between atoms: _380  and  _382
REMARK  150  A    between atoms: _382  and  _383
REMARK  151  A    between atoms: _382  and  _385
REMARK  152  A    between atoms: _385  and  _386
REMARK  153  A    between atoms: _389  and  _391
REMARK  154  A    between atoms: _391  and  _392
REMARK  155  A    between atoms: _391  and  _394
REMARK  156  A    between atoms: _394  and  _395
REMARK  157  A    between atoms: _400  and  _402
REMARK  158  A    between atoms: _402  and  _403
REMARK  159  A    between atoms: _405  and  _407
REMARK  160  A    between atoms: _407  and  _408
REMARK  161  A    between atoms: _407  and  _410
REMARK  162  A    between atoms: _410  and  _411
REMARK  163  A    between atoms: _414  and  _416
REMARK  164  A    between atoms: _416  and  _417
REMARK  165  A    between atoms: _416  and  _419
REMARK  166  A    between atoms: _419  and  _420
REMARK  167  A    between atoms: _420  and  _421
REMARK  168  A    between atoms: _421  and  _422
REMARK  169  A    between atoms: _422  and  _423
REMARK  170  A    between atoms: _427  and  _429
REMARK  171  A    between atoms: _429  and  _430
REMARK  172  A    between atoms: _429  and  _432
REMARK  173  A    between atoms: _432  and  _433
REMARK  174  A    between atoms: _433  and  _434
REMARK  175  A    between atoms: _434  and  _435
REMARK  176  A    between atoms: _444  and  _446
REMARK  177  A    between atoms: _446  and  _447
REMARK  178  A    between atoms: _446  and  _449
REMARK  179  A    between atoms: _449  and  _450
REMARK  180  A    between atoms: _455  and  _457
REMARK  181  A    between atoms: _457  and  _458
REMARK  182  A    between atoms: _457  and  _460
REMARK  183  A    between atoms: _460  and  _461
REMARK  184  A    between atoms: _466  and  _467
REMARK  185  A    between atoms: _469  and  _471
REMARK  186  A    between atoms: _471  and  _472
REMARK  187  A    between atoms: _471  and  _474
REMARK  188  A    between atoms: _474  and  _475
REMARK  189  A    between atoms: _475  and  _476
REMARK  190  A    between atoms: _476  and  _477
REMARK  191  A    between atoms: _477  and  _478
REMARK  192  A    between atoms: _482  and  _484
REMARK  193  A    between atoms: _484  and  _485
REMARK  194  A    between atoms: _484  and  _487
REMARK  195  A    between atoms: _487  and  _488
REMARK  196  A    between atoms: _490  and  _492
REMARK  197  A    between atoms: _492  and  _493
REMARK  198  A    between atoms: _492  and  _495
REMARK  199  A    between atoms: _495  and  _496
REMARK  200  A    between atoms: _499  and  _501
REMARK  201  A    between atoms: _501  and  _502
REMARK  202  A    between atoms: _501  and  _504
REMARK  203  A    between atoms: _504  and  _505
REMARK  204  A    between atoms: _505  and  _506
REMARK  205  A    between atoms: _509  and  _511
REMARK  206  A    between atoms: _511  and  _512
REMARK  207  A    between atoms: _515  and  _517
REMARK  208  A    between atoms: _517  and  _518
REMARK  209  A    between atoms: _517  and  _520
REMARK  210  A    between atoms: _520  and  _521
REMARK  211  A    between atoms: _523  and  _525
REMARK  212  A    between atoms: _525  and  _526
REMARK  213  A    between atoms: _528  and  _530
REMARK  214  A    between atoms: _530  and  _531
REMARK  215  A    between atoms: _530  and  _533
REMARK  216  A    between atoms: _533  and  _534
REMARK  217  A    between atoms: _537  and  _539
REMARK  218  A    between atoms: _539  and  _540
REMARK  219  A    between atoms: _542  and  _544
REMARK  220  A    between atoms: _544  and  _545
REMARK  221  A    between atoms: _544  and  _547
REMARK  222  A    between atoms: _547  and  _548
REMARK  223  A    between atoms: _553  and  _555
REMARK  224  A    between atoms: _555  and  _556
REMARK  225  A    between atoms: _555  and  _558
REMARK  226  A    between atoms: _558  and  _559
REMARK  227  A    between atoms: _559  and  _560
REMARK  228  A    between atoms: _567  and  _568
REMARK  229  A    between atoms: _568  and  _584
REMARK  230  A    between atoms: _569  and  _571
REMARK  231  A    between atoms: _571  and  _572
REMARK  232  A    between atoms: _572  and  _573
REMARK  233  A    between atoms: _577  and  _579
REMARK  234  A    between atoms: _579  and  _580
REMARK  235  A    between atoms: _579  and  _587
REMARK  236  A    between atoms: _580  and  _581
REMARK  237  A    between atoms: _581  and  _582
REMARK  238  A    between atoms: _582  and  _583
REMARK  239  A    between atoms: _583  and  _584
REMARK  240  A    between atoms: _589  and  _591
REMARK  241  A    between atoms: _591  and  _592
REMARK  242  A    between atoms: _591  and  _594
REMARK  243  A    between atoms: _594  and  _595
REMARK  244  A    between atoms: _598  and  _600
REMARK  245  A    between atoms: _600  and  _601
REMARK  246  A    between atoms: _603  and  _605
REMARK  247  A    between atoms: _605  and  _606
REMARK  248  A    between atoms: _609  and  _611
REMARK  249  A    between atoms: _611  and  _612
REMARK  250  A    between atoms: _611  and  _614
REMARK  251  A    between atoms: _614  and  _615
REMARK  252  A    between atoms: _618  and  _620
REMARK  253  A    between atoms: _620  and  _621
REMARK  254  A    between atoms: _620  and  _623
REMARK  255  A    between atoms: _623  and  _624
REMARK  256  A    between atoms: _629  and  _630
REMARK                            x       y       z     vdW  Elec       q    Type
REMARK                         _______ _______ _______ _____ _____    ______ ____
ROOT
ATOM      1  CA  SER A   1      31.877  29.438  17.367  0.00  0.00    +0.163 C 
ENDROOT
BRANCH   1   2
ATOM      2  N   SER A   1      30.504  29.269  16.914  0.00  0.00    -0.237 NA
ATOM      3  H   SER A   1      29.971  28.440  17.247  0.00  0.00    +0.142 HD
ENDBRANCH   1   2
BRANCH   1   4
ATOM      4  C   SER A   1      32.849  29.418  16.166  0.00  0.00    +0.227 C 
ATOM      5  O   SER A   1      32.618  28.704  15.191  0.00  0.00    -0.287 OA
ENDBRANCH   1   4
BRANCH   1   6
ATOM      6  CB  SER A   1      32.190  28.288  18.302  0.00  0.00    +0.162 C 
BRANCH   6   7
ATOM      7  OG  SER A   1      31.800  27.077  17.671  0.00  0.00    -0.380 OA
ATOM      8  H   SER A   1      30.829  27.104  17.480  0.00  0.00    +0.211 HD
ENDBRANCH   6   7
ENDBRANCH   1   6
TORSDOF 4
REMARK  Name = ../refined-set-2016/3syr/3syr_pocket.pdb
REMARK  256 active torsions:
REMARK  status: ('A' for Active; 'I' for Inactive)
REMARK    1  A    between atoms: _1  and  _3
REMARK    2  A    between atoms: _3  and  _4
REMARK    3  A    between atoms: _3  and  _6
REMARK    4  A    between atoms: _6  and  _7
REMARK    5  A    between atoms: _12  and  _13
REMARK    6  A    between atoms: _15  and  _17
REMARK    7  A    between atoms: _17  and  _18
REMARK    8  A    between atoms: _17  and  _20
REMARK    9  A    between atoms: _20  and  _21
REMARK   10  A    between atoms: _21  and  _22
REMARK   11  A    between atoms: _25  and  _27
REMARK   12  A    between atoms: _27  and  _28
REMARK   13  A    between atoms: _27  and  _30
REMARK   14  A    between atoms: _30  and  _31
REMARK   15  A    between atoms: _36  and  _37
REMARK   16  A    between atoms: _39  and  _41
REMARK   17  A    between atoms: _41  and  _42
REMARK   18  A    between atoms: _41  and  _44
REMARK   19  A    between atoms: _44  and  _45
REMARK   20  A    between atoms: _50  and  _52
REMARK   21  A    between atoms: _52  and  _53
REMARK   22  A    between atoms: _55  and  _57
REMARK   23  A    between atoms: _57  and  _58
REMARK   24  A    between atoms: _60  and  _62
REMARK   25  A    between atoms: _62  and  _63
REMARK   26  A    between atoms: _62  and  _65
REMARK   27  A    between atoms: _65  and  _66
REMARK   28  A    between atoms: _69  and  _71
REMARK   29  A    between atoms: _71  and  _72
REMARK   30  A    between atoms: _74  and  _76
REMARK   31  A    between atoms: _76  and  _77
REMARK   32  A    between atoms: _76  and  _79
REMARK   33  A    between atoms: _79  and  _80
REMARK   34  A    between atoms: _80  and  _81
REMARK   35  A    between atoms: _81  and  _82
REMARK   36  A    between atoms: _91  and  _93
REMARK   37  A    between atoms: _93  and  _94
REMARK   38  A    between atoms: _93  and  _96
REMARK   39  A    between atoms: _96  and  _97
REMARK   40  A    between atoms: _100  and  _102
REMARK   41  A    between atoms: _102  and  _103
REMARK   42  A    between atoms: _106  and  _108
REMARK   43  A    between atoms: _108  and  _109
REMARK   44  A    between atoms: _108  and  _111
REMARK   45  A    between atoms: _111  and  _112
REMARK   46  A    between atoms: _118  and  _120
REMARK   47  A    between atoms: _120  and  _121
REMARK   48  A    between atoms: _120  and  _123
REMARK   49  A    between atoms: _123  and  _124
REMARK   50  A    between atoms: _129  and  _131
REMARK   51  A    between atoms: _131  and  _132
REMARK   52  A    between atoms: _131  and  _134
REMARK   53  A    between atoms: _134  and  _135
REMARK   54  A    between atoms: _138  and  _140
REMARK   55  A    between atoms: _140  and  _141
REMARK   56  A    between atoms: _140  and  _143
REMARK   57  A    between atoms: _143  and  _144
REMARK   58  A    between atoms: _149  and  _151
REMARK   59  A    between atoms: _151  and  _152
REMARK   60  A    between atoms: _151  and  _154
REMARK   61  A    between atoms: _154  and  _155
REMARK   62  A    between atoms: _161  and  _163
REMARK   63  A    between atoms: _163  and  _164
REMARK   64  A    between atoms: _163  and  _166
REMARK   65  A    between atoms: _166  and  _167
REMARK   66  A    between atoms: _173  and  _175
REMARK   67  A    between atoms: _175  and  _176
REMARK   68  A    between atoms: _175  and  _178
REMARK   69  A    between atoms: _178  and  _179
REMARK   70  A    between atoms: _179  and  _180
REMARK   71  A    between atoms: _180  and  _181
REMARK   72  A    between atoms: _190  and  _192
REMARK   73  A    between atoms: _192  and  _193
REMARK   74  A    between atoms: _192  and  _195
REMARK   75  A    between atoms: _195  and  _196
REMARK   76  A    between atoms: _201  and  _203
REMARK   77  A    between atoms: _203  and  _204
REMARK   78  A    between atoms: _203  and  _206
REMARK   79  A    between atoms: _206  and  _207
REMARK   80  A    between atoms: _210  and  _212
REMARK   81  A    between atoms: _212  and  _213
REMARK   82  A    between atoms: _212  and  _215
REMARK   83  A    between atoms: _215  and  _216
REMARK   84  A    between atoms: _219  and  _221
REMARK   85  A    between atoms: _221  and  _222
REMARK   86  A    between atoms: _221  and  _224
REMARK   87  A    between atoms: _224  and  _225
REMARK   88  A    between atoms: _230  and  _232
REMARK   89  A    between atoms: _232  and  _233
REMARK   90  A    between atoms: _232  and  _235
REMARK   91  A    between atoms: _235  and  _236
REMARK   92  A    between atoms: _241  and  _242
REMARK   93  A    between atoms: _244  and  _246
REMARK   94  A    between atoms: _246  and  _247
REMARK   95  A    between atoms: _246  and  _249
REMARK   96  A    between atoms: _249  and  _250
REMARK   97  A    between atoms: _253  and  _255
REMARK   98  A    between atoms: _255  and  _256
REMARK   99  A    between atoms: _255  and  _258
REMARK  100  A    between atoms: _258  and  _259
REMARK  101  A    between atoms: _264  and  _266
REMARK  102  A    between atoms: _266  and  _267
REMARK  103  A    between atoms: _266  and  _269
REMARK  104  A    between atoms: _269  and  _270
REMARK  105  A    between atoms: _275  and  _277
REMARK  106  A    between atoms: _277  and  _278
REMARK  107  A    between atoms: _277  and  _280
REMARK  108  A    between atoms: _280  and  _281
REMARK  109  A    between atoms: _284  and  _286
REMARK  110  A    between atoms: _286  and  _287
REMARK  111  A    between atoms: _286  and  _289
REMARK  112  A    between atoms: _292  and  _294
REMARK  113  A    between atoms: _294  and  _295
REMARK  114  A    between atoms: _294  and  _297
REMARK  115  A    between atoms: _297  and  _298
REMARK  116  A    between atoms: _301  and  _303
REMARK  117  A    between atoms: _303  and  _304
REMARK  118  A    between atoms: _307  and  _309
REMARK  119  A    between atoms: _309  and  _310
REMARK  120  A    between atoms: _309  and  _312
REMARK  121  A    between atoms: _312  and  _313
REMARK  122  A    between atoms: _316  and  _318
REMARK  123  A    between atoms: _318  and  _319
REMARK  124  A    between atoms: _318  and  _321
REMARK  125  A    between atoms: _321  and  _322
REMARK  126  A    between atoms: _322  and  _323
REMARK  127  A    between atoms: _326  and  _328
REMARK  128  A    between atoms: _328  and  _329
REMARK  129  A    between atoms: _328  and  _331
REMARK  130  A    between atoms: _331  and  _332
REMARK  131  A    between atoms: _337  and  _339
REMARK  132  A    between atoms: _339  and  _340
REMARK  133  A    between atoms: _342  and  _344
REMARK  134  A    between atoms: _344  and  _345
REMARK  135  A    between atoms: _344  and  _347
REMARK  136  A    between atoms: _350  and  _352
REMARK  137  A    between atoms: _352  and  _353
REMARK  138  A    between atoms: _356  and  _358
REMARK  139  A    between atoms: _358  and  _359
REMARK  140  A    between atoms: _358  and  _361
REMARK  141  A    between atoms: _361  and  _362
REMARK  142  A    between atoms: _367  and  _369
REMARK  143  A    between atoms: _369  and  _370
REMARK  144  A    between atoms: _369  and  _372
REMARK  145  A    between atoms: _372  and  _373
REMARK  146  A    between atoms: _373  and  _374
REMARK  147  A    between atoms: _374  and  _375
REMARK  148  A    between atoms: _375  and  _376
REMARK  149  A    between atoms: _380  and  _382
REMARK  150  A    between atoms: _382  and  _383
REMARK  151  A    between atoms: _382  and  _385
REMARK  152  A    between atoms: _385  and  _386
REMARK  153  A    between atoms: _389  and  _391
REMARK  154  A    between atoms: _391  and  _392
REMARK  155  A    between atoms: _391  and  _394
REMARK  156  A    between atoms: _394  and  _395
REMARK  157  A    between atoms: _400  and  _402
REMARK  158  A    between atoms: _402  and  _403
REMARK  159  A    between atoms: _405  and  _407
REMARK  160  A    between atoms: _407  and  _408
REMARK  161  A    between atoms: _407  and  _410
REMARK  162  A    between atoms: _410  and  _411
REMARK  163  A    between atoms: _414  and  _416
REMARK  164  A    between atoms: _416  and  _417
REMARK  165  A    between atoms: _416  and  _419
REMARK  166  A    between atoms: _419  and  _420
REMARK  167  A    between atoms: _420  and  _421
REMARK  168  A    between atoms: _421  and  _422
REMARK  169  A    between atoms: _422  and  _423
REMARK  170  A    between atoms: _427  and  _429
REMARK  171  A    between atoms: _429  and  _430
REMARK  172  A    between atoms: _429  and  _432
REMARK  173  A    between atoms: _432  and  _433
REMARK  174  A    between atoms: _433  and  _434
REMARK  175  A    between atoms: _434  and  _435
REMARK  176  A    between atoms: _444  and  _446
REMARK  177  A    between atoms: _446  and  _447
REMARK  178  A    between atoms: _446  and  _449
REMARK  179  A    between atoms: _449  and  _450
REMARK  180  A    between atoms: _455  and  _457
REMARK  181  A    between atoms: _457  and  _458
REMARK  182  A    between atoms: _457  and  _460
REMARK  183  A    between atoms: _460  and  _461
REMARK  184  A    between atoms: _466  and  _467
REMARK  185  A    between atoms: _469  and  _471
REMARK  186  A    between atoms: _471  and  _472
REMARK  187  A    between atoms: _471  and  _474
REMARK  188  A    between atoms: _474  and  _475
REMARK  189  A    between atoms: _475  and  _476
REMARK  190  A    between atoms: _476  and  _477
REMARK  191  A    between atoms: _477  and  _478
REMARK  192  A    between atoms: _482  and  _484
REMARK  193  A    between atoms: _484  and  _485
REMARK  194  A    between atoms: _484  and  _487
REMARK  195  A    between atoms: _487  and  _488
REMARK  196  A    between atoms: _490  and  _492
REMARK  197  A    between atoms: _492  and  _493
REMARK  198  A    between atoms: _492  and  _495
REMARK  199  A    between atoms: _495  and  _496
REMARK  200  A    between atoms: _499  and  _501
REMARK  201  A    between atoms: _501  and  _502
REMARK  202  A    between atoms: _501  and  _504
REMARK  203  A    between atoms: _504  and  _505
REMARK  204  A    between atoms: _505  and  _506
REMARK  205  A    between atoms: _509  and  _511
REMARK  206  A    between atoms: _511  and  _512
REMARK  207  A    between atoms: _515  and  _517
REMARK  208  A    between atoms: _517  and  _518
REMARK  209  A    between atoms: _517  and  _520
REMARK  210  A    between atoms: _520  and  _521
REMARK  211  A    between atoms: _523  and  _525
REMARK  212  A    between atoms: _525  and  _526
REMARK  213  A    between atoms: _528  and  _530
REMARK  214  A    between atoms: _530  and  _531
REMARK  215  A    between atoms: _530  and  _533
REMARK  216  A    between atoms: _533  and  _534
REMARK  217  A    between atoms: _537  and  _539
REMARK  218  A    between atoms: _539  and  _540
REMARK  219  A    between atoms: _542  and  _544
REMARK  220  A    between atoms: _544  and  _545
REMARK  221  A    between atoms: _544  and  _547
REMARK  222  A    between atoms: _547  and  _548
REMARK  223  A    between atoms: _553  and  _555
REMARK  224  A    between atoms: _555  and  _556
REMARK  225  A    between atoms: _555  and  _558
REMARK  226  A    between atoms: _558  and  _559
REMARK  227  A    between atoms: _559  and  _560
REMARK  228  A    between atoms: _567  and  _568
REMARK  229  A    between atoms: _568  and  _584
REMARK  230  A    between atoms: _569  and  _571
REMARK  231  A    between atoms: _571  and  _572
REMARK  232  A    between atoms: _572  and  _573
REMARK  233  A    between atoms: _577  and  _579
REMARK  234  A    between atoms: _579  and  _580
REMARK  235  A    between atoms: _579  and  _587
REMARK  236  A    between atoms: _580  and  _581
REMARK  237  A    between atoms: _581  and  _582
REMARK  238  A    between atoms: _582  and  _583
REMARK  239  A    between atoms: _583  and  _584
REMARK  240  A    between atoms: _589  and  _591
REMARK  241  A    between atoms: _591  and  _592
REMARK  242  A    between atoms: _591  and  _594
REMARK  243  A    between atoms: _594  and  _595
REMARK  244  A    between atoms: _598  and  _600
REMARK  245  A    between atoms: _600  and  _601
REMARK  246  A    between atoms: _603  and  _605
REMARK  247  A    between atoms: _605  and  _606
REMARK  248  A    between atoms: _609  and  _611
REMARK  249  A    between atoms: _611  and  _612
REMARK  250  A    between atoms: _611  and  _614
REMARK  251  A    between atoms: _614  and  _615
REMARK  252  A    between atoms: _618  and  _620
REMARK  253  A    between atoms: _620  and  _621
REMARK  254  A    between atoms: _620  and  _623
REMARK  255  A    between atoms: _623  and  _624
REMARK  256  A    between atoms: _629  and  _630
REMARK                            x       y       z     vdW  Elec       q    Type
REMARK                         _______ _______ _______ _____ _____    ______ ____
ROOT
ATOM      1  CA  GLY A   7      23.710  22.332  23.851  0.00  0.00    +0.176 C 
ENDROOT
BRANCH   1   2
ATOM      2  C   GLY A   7      23.247  21.919  22.451  0.00  0.00    +0.243 C 
ATOM      3  O   GLY A   7      22.066  21.617  22.232  0.00  0.00    -0.273 OA
ATOM      4  N   ASN A   8      24.187  21.886  21.509  0.00  0.00    -0.297 N 
ATOM      5  H   ASN A   8      25.170  22.100  21.774  0.00  0.00    +0.150 HD
BRANCH   4   6
ATOM      6  CA  ASN A   8      23.890  21.561  20.120  0.00  0.00    +0.158 C 
BRANCH   6   7
ATOM      7  C   ASN A   8      23.093  20.244  19.986  0.00  0.00    +0.241 C 
ATOM      8  N   MET A   9      23.527  19.247  20.743  0.00  0.00    -0.297 N 
ATOM      9  H   MET A   9      24.387  19.390  21.309  0.00  0.00    +0.150 HD
ATOM     10  O   ASN A   8      22.085  20.160  19.262  0.00  0.00    -0.273 OA
BRANCH   8  11
ATOM     11  CA  MET A   9      22.851  17.962  20.815  0.00  0.00    +0.149 C 
BRANCH  11  12
ATOM     12  C   MET A   9      21.476  18.068  21.480  0.00  0.00    +0.241 C 
ATOM     13  N   UNK A  10      21.336  18.931  22.481  0.00  0.00    -0.298 N 
ATOM     14  H   UNK A  10      22.144  19.507  22.794  0.00  0.00    +0.150 HD
ATOM     15  O   MET A   9      20.543  17.381  21.075  0.00  0.00    -0.273 OA
BRANCH  13  16
ATOM     16  C   UNK A  10      20.049  19.063  23.132  0.00  0.00    +0.137 C 
BRANCH  16  17
ATOM     17  C   UNK A  10      18.995  19.561  22.129  0.00  0.00    +0.227 C 
ATOM     18  O   UNK A  10      17.858  19.052  22.094  0.00  0.00    -0.286 OA
ENDBRANCH  16  17
BRANCH  16  19
ATOM     19  C   UNK A  10      20.149  19.983  24.352  0.00  0.00    +0.028 C 
BRANCH  19  20
ATOM     20  C   UNK A  10      21.078  19.469  25.477  0.00  0.00    -0.000 C 
BRANCH  20  21
ATOM     21  C   UNK A  10      21.375  20.592  26.449  0.00  0.00    -0.023 C 
BRANCH  21  22
ATOM     22  C   UNK A  10      22.640  20.316  27.228  0.00  0.00    -0.082 C 
BRANCH  22  23
ATOM     23  N   UNK A  10      22.906  21.359  28.266  0.00  0.00    +0.384 N 
ATOM     24  H   UNK A  10      22.105  22.021  28.303  0.00  0.00    -0.084 HD
ATOM     25  H   UNK A  10      23.020  20.902  29.193  0.00  0.00    -0.084 HD
BRANCH  23  26
ATOM     26  C   UNK A  10      24.014  22.024  27.963  0.00  0.00    -0.070 C 
BRANCH  26  27
ATOM     27  C   UNK A  10      24.218  23.262  28.815  0.00  0.00    +0.064 C 
ATOM     28  C   UNK A  10      25.373  24.047  28.623  0.00  0.00    +0.010 C 
ATOM     29  C   UNK A  10      25.602  25.189  29.378  0.00  0.00    +0.093 C 
ATOM     30  N   UNK A  10      24.658  25.536  30.330  0.00  0.00    -0.246 NA
ATOM     31  C   UNK A  10      23.524  24.777  30.535  0.00  0.00    +0.094 C 
ATOM     32  C   UNK A  10      22.533  25.194  31.570  0.00  0.00    +0.055 C 
ATOM     33  C   UNK A  10      23.282  23.632  29.789  0.00  0.00    +0.188 C 
ATOM     34  O   UNK A  10      22.244  22.956  29.987  0.00  0.00    -0.290 OA
BRANCH  28  35
ATOM     35  C   UNK A  10      26.362  23.679  27.559  0.00  0.00    +0.178 C 
BRANCH  35  36
ATOM     36  O   UNK A  10      26.015  24.300  26.313  0.00  0.00    -0.266 OA
BRANCH  36  37
ATOM     37  P   UNK A  10      27.098  24.626  25.165  0.00  0.00    +0.533 P 
ATOM     38  O   UNK A  10      27.768  23.351  24.777  0.00  0.00    -0.115 OA
ATOM     39  O   UNK A  10      27.983  25.604  25.844  0.00  0.00    -0.115 OA
ATOM     40  O   UNK A  10      26.270  25.187  24.081  0.00  0.00    -0.222 OA
ENDBRANCH  36  37
ENDBRANCH  35  36
ENDBRANCH  28  35
ENDBRANCH  26  27
ENDBRANCH  23  26
ENDBRANCH  22  23
ENDBRANCH  21  22
ENDBRANCH  20  21
ENDBRANCH  19  20
ENDBRANCH  16  19
ENDBRANCH  13  16
ENDBRANCH  11  12
BRANCH  11  41
ATOM     41  CB  MET A   9      23.736  16.932  21.525  0.00  0.00    +0.041 C 
BRANCH  41  42
ATOM     42  CG  MET A   9      25.143  16.844  20.947  0.00  0.00    +0.060 C 
BRANCH  42  43
ATOM     43  SD  MET A   9      26.240  15.986  22.078  0.00  0.00    -0.139 S 
ATOM     44  CE  MET A   9      27.832  16.082  21.261  0.00  0.00    +0.069 C 
ENDBRANCH  42  43
ENDBRANCH  41  42
ENDBRANCH  11  41
ENDBRANCH   8  11
ENDBRANCH   6   7
BRANCH   6  45
ATOM     45  CB  ASN A   8      25.173  21.596  19.255  0.00  0.00    +0.114 C 
BRANCH  45  46
ATOM     46  CG  ASN A   8      26.347  20.769  19.844  0.00  0.00    +0.222 C 
ATOM     47  ND2 ASN A   8      26.133  20.095  20.981  0.00  0.00    -0.329 N 
ATOM     48 HD21 ASN A   8      25.212  20.161  21.459  0.00  0.00    +0.145 HD
ATOM     49 HD22 ASN A   8      26.888  19.505  21.386  0.00  0.00    +0.145 HD
ATOM     50  OD1 ASN A   8      27.422  20.720  19.244  0.00  0.00    -0.275 OA
ENDBRANCH  45  46
ENDBRANCH   6  45
ENDBRANCH   4   6
ENDBRANCH   1   2
BRANCH   1  52
ATOM     51  C   THR A   6      25.084  20.329  24.031  0.00  0.00    +0.243 C 
ATOM     52  N   GLY A   7      24.959  21.643  24.181  0.00  0.00    -0.295 N 
ATOM     53  H   GLY A   7      25.765  22.194  24.540  0.00  0.00    +0.150 HD
ATOM     54  O   THR A   6      24.129  19.587  23.809  0.00  0.00    -0.273 OA
BRANCH  51  55
ATOM     55  CA  THR A   6      26.494  19.761  24.142  0.00  0.00    +0.176 C 
BRANCH  55  57
ATOM     56  C   GLY A   5      28.517  20.435  22.963  0.00  0.00    +0.243 C 
ATOM     57  N   THR A   6      27.507  20.759  23.766  0.00  0.00    -0.295 N 
ATOM     58  H   THR A   6      27.433  21.730  24.132  0.00  0.00    +0.150 HD
ATOM     59  O   GLY A   5      28.743  19.277  22.616  0.00  0.00    -0.273 OA
BRANCH  56  60
ATOM     60  CA  GLY A   5      29.427  21.557  22.505  0.00  0.00    +0.176 C 
BRANCH  60  62
ATOM     61  C   SER A   4      31.217  20.464  21.254  0.00  0.00    +0.243 C 
ATOM     62  N   GLY A   5      30.777  21.030  22.375  0.00  0.00    -0.295 N 
ATOM     63  H   GLY A   5      31.422  21.098  23.188  0.00  0.00    +0.150 HD
ATOM     64  O   SER A   4      30.628  20.521  20.162  0.00  0.00    -0.273 OA
BRANCH  61  65
ATOM     65  CA  SER A   4      32.512  19.703  21.386  0.00  0.00    +0.178 C 
BRANCH  65  67
ATOM     66  C   ALA A   3      34.791  20.473  21.252  0.00  0.00    +0.241 C 
ATOM     67  N   SER A   4      33.593  20.542  21.827  0.00  0.00    -0.295 N 
ATOM     68  H   SER A   4      33.436  21.212  22.607  0.00  0.00    +0.150 HD
ATOM     69  O   ALA A   3      35.066  19.662  20.365  0.00  0.00    -0.273 OA
BRANCH  66  70
ATOM     70  CA  ALA A   3      35.841  21.466  21.760  0.00  0.00    +0.149 C 
ATOM     71  CB  ALA A   3      36.358  21.068  23.159  0.00  0.00    +0.031 C 
BRANCH  70  73
ATOM     72  C   GLU A   2      34.826  23.365  20.643  0.00  0.00    +0.241 C 
ATOM     73  N   ALA A   3      35.308  22.826  21.761  0.00  0.00    -0.297 N 
ATOM     74  H   ALA A   3      35.305  23.378  22.642  0.00  0.00    +0.150 HD
ATOM     75  O   GLU A   2      34.696  22.720  19.627  0.00  0.00    -0.273 OA
BRANCH  72  76
ATOM     76  CA  GLU A   2      34.437  24.845  20.668  0.00  0.00    +0.149 C 
BRANCH  76  79
ATOM     77  C   THR A   1      36.580  26.069  20.361  0.00  0.00    +0.241 C 
ATOM     78  O   THR A   1      36.920  25.906  21.528  0.00  0.00    -0.274 OA
ATOM     79  N   GLU A   2      35.408  25.636  19.876  0.00  0.00    -0.297 N 
ATOM     80  H   GLU A   2      35.167  25.868  18.891  0.00  0.00    +0.150 HD
BRANCH  77  81
ATOM     81  CA  THR A   1      37.535  26.801  19.411  0.00  0.00    +0.172 C 
BRANCH  81  82
ATOM     82  N   THR A   1      37.596  26.273  18.039  0.00  0.00    -0.236 NA
ATOM     83  H   THR A   1      36.856  26.538  17.358  0.00  0.00    +0.142 HD
ENDBRANCH  81  82
BRANCH  81  84
ATOM     84  CB  THR A   1      37.208  28.298  19.417  0.00  0.00    +0.135 C 
ATOM     85  CG2 THR A   1      38.173  29.053  18.500  0.00  0.00    +0.034 C 
BRANCH  84  86
ATOM     86  OG1 THR A   1      35.853  28.495  18.979  0.00  0.00    -0.383 OA
ATOM     87  HG1 THR A   1      35.749  28.138  18.062  0.00  0.00    +0.210 HD
ENDBRANCH  84  86
ENDBRANCH  81  84
ENDBRANCH  77  81
ENDBRANCH  76  79
BRANCH  76  88
ATOM     88  CB  GLU A   2      33.012  25.016  20.112  0.00  0.00    +0.041 C 
BRANCH  88  89
ATOM     89  CG  GLU A   2      31.840  24.549  21.030  0.00  0.00    +0.116 C 
BRANCH  89  90
ATOM     90  CD  GLU A   2      31.768  25.322  22.364  0.00  0.00    +0.365 C 
ATOM     91  OE2 GLU A   2      32.464  24.927  23.336  0.00  0.00    -0.246 OA
ATOM     92  OE1 GLU A   2      31.020  26.328  22.448  0.00  0.00    -0.246 OA
ENDBRANCH  89  90
ENDBRANCH  88  89
ENDBRANCH  76  88
ENDBRANCH  72  76
ENDBRANCH  70  73
ENDBRANCH  66  70
ENDBRANCH  65  67
BRANCH  65  93
ATOM     93  CB  SER A   4      32.301  18.530  22.329  0.00  0.00    +0.166 C 
BRANCH  93  94
ATOM     94  OG  SER A   4      31.085  17.888  21.989  0.00  0.00    -0.380 OA
ATOM     95  H   SER A   4      30.338  18.531  22.078  0.00  0.00    +0.211 HD
ENDBRANCH  93  94
ENDBRANCH  65  93
ENDBRANCH  61  65
ENDBRANCH  60  62
ENDBRANCH  56  60
ENDBRANCH  55  57
BRANCH  55  96
ATOM     96  CB  THR A   6      26.708  19.188  25.544  0.00  0.00    +0.137 C 
ATOM     97  CG2 THR A   6      27.915  18.286  25.589  0.00  0.00    +0.034 C 
BRANCH  96  98
ATOM     98  OG1 THR A   6      26.879  20.264  26.457  0.00  0.00    -0.382 OA
ATOM     99  HG1 THR A   6      27.018  19.903  27.368  0.00  0.00    +0.210 HD
ENDBRANCH  96  98
ENDBRANCH  55  96
ENDBRANCH  51  55
ENDBRANCH   1  52
TORSDOF 44
REMARK  Name = ../refined-set-2016/3syr/3syr_pocket.pdb
REMARK  256 active torsions:
REMARK  status: ('A' for Active; 'I' for Inactive)
REMARK    1  A    between atoms: _1  and  _3
REMARK    2  A    between atoms: _3  and  _4
REMARK    3  A    between atoms: _3  and  _6
REMARK    4  A    between atoms: _6  and  _7
REMARK    5  A    between atoms: _12  and  _13
REMARK    6  A    between atoms: _15  and  _17
REMARK    7  A    between atoms: _17  and  _18
REMARK    8  A    between atoms: _17  and  _20
REMARK    9  A    between atoms: _20  and  _21
REMARK   10  A    between atoms: _21  and  _22
REMARK   11  A    between atoms: _25  and  _27
REMARK   12  A    between atoms: _27  and  _28
REMARK   13  A    between atoms: _27  and  _30
REMARK   14  A    between atoms: _30  and  _31
REMARK   15  A    between atoms: _36  and  _37
REMARK   16  A    between atoms: _39  and  _41
REMARK   17  A    between atoms: _41  and  _42
REMARK   18  A    between atoms: _41  and  _44
REMARK   19  A    between atoms: _44  and  _45
REMARK   20  A    between atoms: _50  and  _52
REMARK   21  A    between atoms: _52  and  _53
REMARK   22  A    between atoms: _55  and  _57
REMARK   23  A    between atoms: _57  and  _58
REMARK   24  A    between atoms: _60  and  _62
REMARK   25  A    between atoms: _62  and  _63
REMARK   26  A    between atoms: _62  and  _65
REMARK   27  A    between atoms: _65  and  _66
REMARK   28  A    between atoms: _69  and  _71
REMARK   29  A    between atoms: _71  and  _72
REMARK   30  A    between atoms: _74  and  _76
REMARK   31  A    between atoms: _76  and  _77
REMARK   32  A    between atoms: _76  and  _79
REMARK   33  A    between atoms: _79  and  _80
REMARK   34  A    between atoms: _80  and  _81
REMARK   35  A    between atoms: _81  and  _82
REMARK   36  A    between atoms: _91  and  _93
REMARK   37  A    between atoms: _93  and  _94
REMARK   38  A    between atoms: _93  and  _96
REMARK   39  A    between atoms: _96  and  _97
REMARK   40  A    between atoms: _100  and  _102
REMARK   41  A    between atoms: _102  and  _103
REMARK   42  A    between atoms: _106  and  _108
REMARK   43  A    between atoms: _108  and  _109
REMARK   44  A    between atoms: _108  and  _111
REMARK   45  A    between atoms: _111  and  _112
REMARK   46  A    between atoms: _118  and  _120
REMARK   47  A    between atoms: _120  and  _121
REMARK   48  A    between atoms: _120  and  _123
REMARK   49  A    between atoms: _123  and  _124
REMARK   50  A    between atoms: _129  and  _131
REMARK   51  A    between atoms: _131  and  _132
REMARK   52  A    between atoms: _131  and  _134
REMARK   53  A    between atoms: _134  and  _135
REMARK   54  A    between atoms: _138  and  _140
REMARK   55  A    between atoms: _140  and  _141
REMARK   56  A    between atoms: _140  and  _143
REMARK   57  A    between atoms: _143  and  _144
REMARK   58  A    between atoms: _149  and  _151
REMARK   59  A    between atoms: _151  and  _152
REMARK   60  A    between atoms: _151  and  _154
REMARK   61  A    between atoms: _154  and  _155
REMARK   62  A    between atoms: _161  and  _163
REMARK   63  A    between atoms: _163  and  _164
REMARK   64  A    between atoms: _163  and  _166
REMARK   65  A    between atoms: _166  and  _167
REMARK   66  A    between atoms: _173  and  _175
REMARK   67  A    between atoms: _175  and  _176
REMARK   68  A    between atoms: _175  and  _178
REMARK   69  A    between atoms: _178  and  _179
REMARK   70  A    between atoms: _179  and  _180
REMARK   71  A    between atoms: _180  and  _181
REMARK   72  A    between atoms: _190  and  _192
REMARK   73  A    between atoms: _192  and  _193
REMARK   74  A    between atoms: _192  and  _195
REMARK   75  A    between atoms: _195  and  _196
REMARK   76  A    between atoms: _201  and  _203
REMARK   77  A    between atoms: _203  and  _204
REMARK   78  A    between atoms: _203  and  _206
REMARK   79  A    between atoms: _206  and  _207
REMARK   80  A    between atoms: _210  and  _212
REMARK   81  A    between atoms: _212  and  _213
REMARK   82  A    between atoms: _212  and  _215
REMARK   83  A    between atoms: _215  and  _216
REMARK   84  A    between atoms: _219  and  _221
REMARK   85  A    between atoms: _221  and  _222
REMARK   86  A    between atoms: _221  and  _224
REMARK   87  A    between atoms: _224  and  _225
REMARK   88  A    between atoms: _230  and  _232
REMARK   89  A    between atoms: _232  and  _233
REMARK   90  A    between atoms: _232  and  _235
REMARK   91  A    between atoms: _235  and  _236
REMARK   92  A    between atoms: _241  and  _242
REMARK   93  A    between atoms: _244  and  _246
REMARK   94  A    between atoms: _246  and  _247
REMARK   95  A    between atoms: _246  and  _249
REMARK   96  A    between atoms: _249  and  _250
REMARK   97  A    between atoms: _253  and  _255
REMARK   98  A    between atoms: _255  and  _256
REMARK   99  A    between atoms: _255  and  _258
REMARK  100  A    between atoms: _258  and  _259
REMARK  101  A    between atoms: _264  and  _266
REMARK  102  A    between atoms: _266  and  _267
REMARK  103  A    between atoms: _266  and  _269
REMARK  104  A    between atoms: _269  and  _270
REMARK  105  A    between atoms: _275  and  _277
REMARK  106  A    between atoms: _277  and  _278
REMARK  107  A    between atoms: _277  and  _280
REMARK  108  A    between atoms: _280  and  _281
REMARK  109  A    between atoms: _284  and  _286
REMARK  110  A    between atoms: _286  and  _287
REMARK  111  A    between atoms: _286  and  _289
REMARK  112  A    between atoms: _292  and  _294
REMARK  113  A    between atoms: _294  and  _295
REMARK  114  A    between atoms: _294  and  _297
REMARK  115  A    between atoms: _297  and  _298
REMARK  116  A    between atoms: _301  and  _303
REMARK  117  A    between atoms: _303  and  _304
REMARK  118  A    between atoms: _307  and  _309
REMARK  119  A    between atoms: _309  and  _310
REMARK  120  A    between atoms: _309  and  _312
REMARK  121  A    between atoms: _312  and  _313
REMARK  122  A    between atoms: _316  and  _318
REMARK  123  A    between atoms: _318  and  _319
REMARK  124  A    between atoms: _318  and  _321
REMARK  125  A    between atoms: _321  and  _322
REMARK  126  A    between atoms: _322  and  _323
REMARK  127  A    between atoms: _326  and  _328
REMARK  128  A    between atoms: _328  and  _329
REMARK  129  A    between atoms: _328  and  _331
REMARK  130  A    between atoms: _331  and  _332
REMARK  131  A    between atoms: _337  and  _339
REMARK  132  A    between atoms: _339  and  _340
REMARK  133  A    between atoms: _342  and  _344
REMARK  134  A    between atoms: _344  and  _345
REMARK  135  A    between atoms: _344  and  _347
REMARK  136  A    between atoms: _350  and  _352
REMARK  137  A    between atoms: _352  and  _353
REMARK  138  A    between atoms: _356  and  _358
REMARK  139  A    between atoms: _358  and  _359
REMARK  140  A    between atoms: _358  and  _361
REMARK  141  A    between atoms: _361  and  _362
REMARK  142  A    between atoms: _367  and  _369
REMARK  143  A    between atoms: _369  and  _370
REMARK  144  A    between atoms: _369  and  _372
REMARK  145  A    between atoms: _372  and  _373
REMARK  146  A    between atoms: _373  and  _374
REMARK  147  A    between atoms: _374  and  _375
REMARK  148  A    between atoms: _375  and  _376
REMARK  149  A    between atoms: _380  and  _382
REMARK  150  A    between atoms: _382  and  _383
REMARK  151  A    between atoms: _382  and  _385
REMARK  152  A    between atoms: _385  and  _386
REMARK  153  A    between atoms: _389  and  _391
REMARK  154  A    between atoms: _391  and  _392
REMARK  155  A    between atoms: _391  and  _394
REMARK  156  A    between atoms: _394  and  _395
REMARK  157  A    between atoms: _400  and  _402
REMARK  158  A    between atoms: _402  and  _403
REMARK  159  A    between atoms: _405  and  _407
REMARK  160  A    between atoms: _407  and  _408
REMARK  161  A    between atoms: _407  and  _410
REMARK  162  A    between atoms: _410  and  _411
REMARK  163  A    between atoms: _414  and  _416
REMARK  164  A    between atoms: _416  and  _417
REMARK  165  A    between atoms: _416  and  _419
REMARK  166  A    between atoms: _419  and  _420
REMARK  167  A    between atoms: _420  and  _421
REMARK  168  A    between atoms: _421  and  _422
REMARK  169  A    between atoms: _422  and  _423
REMARK  170  A    between atoms: _427  and  _429
REMARK  171  A    between atoms: _429  and  _430
REMARK  172  A    between atoms: _429  and  _432
REMARK  173  A    between atoms: _432  and  _433
REMARK  174  A    between atoms: _433  and  _434
REMARK  175  A    between atoms: _434  and  _435
REMARK  176  A    between atoms: _444  and  _446
REMARK  177  A    between atoms: _446  and  _447
REMARK  178  A    between atoms: _446  and  _449
REMARK  179  A    between atoms: _449  and  _450
REMARK  180  A    between atoms: _455  and  _457
REMARK  181  A    between atoms: _457  and  _458
REMARK  182  A    between atoms: _457  and  _460
REMARK  183  A    between atoms: _460  and  _461
REMARK  184  A    between atoms: _466  and  _467
REMARK  185  A    between atoms: _469  and  _471
REMARK  186  A    between atoms: _471  and  _472
REMARK  187  A    between atoms: _471  and  _474
REMARK  188  A    between atoms: _474  and  _475
REMARK  189  A    between atoms: _475  and  _476
REMARK  190  A    between atoms: _476  and  _477
REMARK  191  A    between atoms: _477  and  _478
REMARK  192  A    between atoms: _482  and  _484
REMARK  193  A    between atoms: _484  and  _485
REMARK  194  A    between atoms: _484  and  _487
REMARK  195  A    between atoms: _487  and  _488
REMARK  196  A    between atoms: _490  and  _492
REMARK  197  A    between atoms: _492  and  _493
REMARK  198  A    between atoms: _492  and  _495
REMARK  199  A    between atoms: _495  and  _496
REMARK  200  A    between atoms: _499  and  _501
REMARK  201  A    between atoms: _501  and  _502
REMARK  202  A    between atoms: _501  and  _504
REMARK  203  A    between atoms: _504  and  _505
REMARK  204  A    between atoms: _505  and  _506
REMARK  205  A    between atoms: _509  and  _511
REMARK  206  A    between atoms: _511  and  _512
REMARK  207  A    between atoms: _515  and  _517
REMARK  208  A    between atoms: _517  and  _518
REMARK  209  A    between atoms: _517  and  _520
REMARK  210  A    between atoms: _520  and  _521
REMARK  211  A    between atoms: _523  and  _525
REMARK  212  A    between atoms: _525  and  _526
REMARK  213  A    between atoms: _528  and  _530
REMARK  214  A    between atoms: _530  and  _531
REMARK  215  A    between atoms: _530  and  _533
REMARK  216  A    between atoms: _533  and  _534
REMARK  217  A    between atoms: _537  and  _539
REMARK  218  A    between atoms: _539  and  _540
REMARK  219  A    between atoms: _542  and  _544
REMARK  220  A    between atoms: _544  and  _545
REMARK  221  A    between atoms: _544  and  _547
REMARK  222  A    between atoms: _547  and  _548
REMARK  223  A    between atoms: _553  and  _555
REMARK  224  A    between atoms: _555  and  _556
REMARK  225  A    between atoms: _555  and  _558
REMARK  226  A    between atoms: _558  and  _559
REMARK  227  A    between atoms: _559  and  _560
REMARK  228  A    between atoms: _567  and  _568
REMARK  229  A    between atoms: _568  and  _584
REMARK  230  A    between atoms: _569  and  _571
REMARK  231  A    between atoms: _571  and  _572
REMARK  232  A    between atoms: _572  and  _573
REMARK  233  A    between atoms: _577  and  _579
REMARK  234  A    between atoms: _579  and  _580
REMARK  235  A    between atoms: _579  and  _587
REMARK  236  A    between atoms: _580  and  _581
REMARK  237  A    between atoms: _581  and  _582
REMARK  238  A    between atoms: _582  and  _583
REMARK  239  A    between atoms: _583  and  _584
REMARK  240  A    between atoms: _589  and  _591
REMARK  241  A    between atoms: _591  and  _592
REMARK  242  A    between atoms: _591  and  _594
REMARK  243  A    between atoms: _594  and  _595
REMARK  244  A    between atoms: _598  and  _600
REMARK  245  A    between atoms: _600  and  _601
REMARK  246  A    between atoms: _603  and  _605
REMARK  247  A    between atoms: _605  and  _606
REMARK  248  A    between atoms: _609  and  _611
REMARK  249  A    between atoms: _611  and  _612
REMARK  250  A    between atoms: _611  and  _614
REMARK  251  A    between atoms: _614  and  _615
REMARK  252  A    between atoms: _618  and  _620
REMARK  253  A    between atoms: _620  and  _621
REMARK  254  A    between atoms: _620  and  _623
REMARK  255  A    between atoms: _623  and  _624
REMARK  256  A    between atoms: _629  and  _630
REMARK                            x       y       z     vdW  Elec       q    Type
REMARK                         _______ _______ _______ _____ _____    ______ ____
ROOT
ATOM      1  C   ASP A   1      32.817  22.062  15.821  0.00  0.00    +0.239 C 
ATOM      2  N   GLY A   2      33.750  21.520  16.602  0.00  0.00    -0.296 N 
ATOM      3  H   GLY A   2      34.745  21.800  16.487  0.00  0.00    +0.150 HD
ATOM      4  O   ASP A   1      31.632  21.747  15.871  0.00  0.00    -0.274 OA
ENDROOT
BRANCH   1   5
ATOM      5  CA  ASP A   1      33.281  23.103  14.835  0.00  0.00    +0.156 C 
BRANCH   5   6
ATOM      6  N   ASP A   1      32.527  23.021  13.590  0.00  0.00    -0.238 NA
ATOM      7  H   ASP A   1      31.490  22.959  13.640  0.00  0.00    +0.142 HD
ENDBRANCH   5   6
BRANCH   5   8
ATOM      8  CB  ASP A   1      33.143  24.492  15.465  0.00  0.00    +0.140 C 
BRANCH   8   9
ATOM      9  CG  ASP A   1      34.226  24.768  16.498  0.00  0.00    +0.367 C 
ATOM     10  OD2 ASP A   1      34.042  25.706  17.300  0.00  0.00    -0.246 OA
ATOM     11  OD1 ASP A   1      35.259  24.052  16.502  0.00  0.00    -0.246 OA
ENDBRANCH   8   9
ENDBRANCH   5   8
ENDBRANCH   1   5
BRANCH   2  12
ATOM     12  CA  GLY A   2      33.386  20.534  17.620  0.00  0.00    +0.176 C 
BRANCH  12  13
ATOM     13  C   GLY A   2      32.430  19.459  17.116  0.00  0.00    +0.243 C 
ATOM     14  N   ALA A   3      31.440  19.098  17.927  0.00  0.00    -0.298 N 
ATOM     15  H   ALA A   3      31.320  19.581  18.840  0.00  0.00    +0.150 HD
ATOM     16  O   GLY A   2      32.585  18.963  16.005  0.00  0.00    -0.273 OA
BRANCH  14  17
ATOM     17  CA  ALA A   3      30.518  18.028  17.547  0.00  0.00    +0.137 C 
ATOM     18  CB  ALA A   3      29.745  17.526  18.747  0.00  0.00    +0.030 C 
BRANCH  17  19
ATOM     19  C   ALA A   3      29.563  18.389  16.387  0.00  0.00    +0.227 C 
ATOM     20  O   ALA A   3      28.928  17.489  15.820  0.00  0.00    -0.286 OA
ENDBRANCH  17  19
ENDBRANCH  14  17
ENDBRANCH  12  13
ENDBRANCH   2  12
TORSDOF 8
REMARK  Name = ../refined-set-2016/3syr/3syr_pocket.pdb
REMARK  256 active torsions:
REMARK  status: ('A' for Active; 'I' for Inactive)
REMARK    1  A    between atoms: _1  and  _3
REMARK    2  A    between atoms: _3  and  _4
REMARK    3  A    between atoms: _3  and  _6
REMARK    4  A    between atoms: _6  and  _7
REMARK    5  A    between atoms: _12  and  _13
REMARK    6  A    between atoms: _15  and  _17
REMARK    7  A    between atoms: _17  and  _18
REMARK    8  A    between atoms: _17  and  _20
REMARK    9  A    between atoms: _20  and  _21
REMARK   10  A    between atoms: _21  and  _22
REMARK   11  A    between atoms: _25  and  _27
REMARK   12  A    between atoms: _27  and  _28
REMARK   13  A    between atoms: _27  and  _30
REMARK   14  A    between atoms: _30  and  _31
REMARK   15  A    between atoms: _36  and  _37
REMARK   16  A    between atoms: _39  and  _41
REMARK   17  A    between atoms: _41  and  _42
REMARK   18  A    between atoms: _41  and  _44
REMARK   19  A    between atoms: _44  and  _45
REMARK   20  A    between atoms: _50  and  _52
REMARK   21  A    between atoms: _52  and  _53
REMARK   22  A    between atoms: _55  and  _57
REMARK   23  A    between atoms: _57  and  _58
REMARK   24  A    between atoms: _60  and  _62
REMARK   25  A    between atoms: _62  and  _63
REMARK   26  A    between atoms: _62  and  _65
REMARK   27  A    between atoms: _65  and  _66
REMARK   28  A    between atoms: _69  and  _71
REMARK   29  A    between atoms: _71  and  _72
REMARK   30  A    between atoms: _74  and  _76
REMARK   31  A    between atoms: _76  and  _77
REMARK   32  A    between atoms: _76  and  _79
REMARK   33  A    between atoms: _79  and  _80
REMARK   34  A    between atoms: _80  and  _81
REMARK   35  A    between atoms: _81  and  _82
REMARK   36  A    between atoms: _91  and  _93
REMARK   37  A    between atoms: _93  and  _94
REMARK   38  A    between atoms: _93  and  _96
REMARK   39  A    between atoms: _96  and  _97
REMARK   40  A    between atoms: _100  and  _102
REMARK   41  A    between atoms: _102  and  _103
REMARK   42  A    between atoms: _106  and  _108
REMARK   43  A    between atoms: _108  and  _109
REMARK   44  A    between atoms: _108  and  _111
REMARK   45  A    between atoms: _111  and  _112
REMARK   46  A    between atoms: _118  and  _120
REMARK   47  A    between atoms: _120  and  _121
REMARK   48  A    between atoms: _120  and  _123
REMARK   49  A    between atoms: _123  and  _124
REMARK   50  A    between atoms: _129  and  _131
REMARK   51  A    between atoms: _131  and  _132
REMARK   52  A    between atoms: _131  and  _134
REMARK   53  A    between atoms: _134  and  _135
REMARK   54  A    between atoms: _138  and  _140
REMARK   55  A    between atoms: _140  and  _141
REMARK   56  A    between atoms: _140  and  _143
REMARK   57  A    between atoms: _143  and  _144
REMARK   58  A    between atoms: _149  and  _151
REMARK   59  A    between atoms: _151  and  _152
REMARK   60  A    between atoms: _151  and  _154
REMARK   61  A    between atoms: _154  and  _155
REMARK   62  A    between atoms: _161  and  _163
REMARK   63  A    between atoms: _163  and  _164
REMARK   64  A    between atoms: _163  and  _166
REMARK   65  A    between atoms: _166  and  _167
REMARK   66  A    between atoms: _173  and  _175
REMARK   67  A    between atoms: _175  and  _176
REMARK   68  A    between atoms: _175  and  _178
REMARK   69  A    between atoms: _178  and  _179
REMARK   70  A    between atoms: _179  and  _180
REMARK   71  A    between atoms: _180  and  _181
REMARK   72  A    between atoms: _190  and  _192
REMARK   73  A    between atoms: _192  and  _193
REMARK   74  A    between atoms: _192  and  _195
REMARK   75  A    between atoms: _195  and  _196
REMARK   76  A    between atoms: _201  and  _203
REMARK   77  A    between atoms: _203  and  _204
REMARK   78  A    between atoms: _203  and  _206
REMARK   79  A    between atoms: _206  and  _207
REMARK   80  A    between atoms: _210  and  _212
REMARK   81  A    between atoms: _212  and  _213
REMARK   82  A    between atoms: _212  and  _215
REMARK   83  A    between atoms: _215  and  _216
REMARK   84  A    between atoms: _219  and  _221
REMARK   85  A    between atoms: _221  and  _222
REMARK   86  A    between atoms: _221  and  _224
REMARK   87  A    between atoms: _224  and  _225
REMARK   88  A    between atoms: _230  and  _232
REMARK   89  A    between atoms: _232  and  _233
REMARK   90  A    between atoms: _232  and  _235
REMARK   91  A    between atoms: _235  and  _236
REMARK   92  A    between atoms: _241  and  _242
REMARK   93  A    between atoms: _244  and  _246
REMARK   94  A    between atoms: _246  and  _247
REMARK   95  A    between atoms: _246  and  _249
REMARK   96  A    between atoms: _249  and  _250
REMARK   97  A    between atoms: _253  and  _255
REMARK   98  A    between atoms: _255  and  _256
REMARK   99  A    between atoms: _255  and  _258
REMARK  100  A    between atoms: _258  and  _259
REMARK  101  A    between atoms: _264  and  _266
REMARK  102  A    between atoms: _266  and  _267
REMARK  103  A    between atoms: _266  and  _269
REMARK  104  A    between atoms: _269  and  _270
REMARK  105  A    between atoms: _275  and  _277
REMARK  106  A    between atoms: _277  and  _278
REMARK  107  A    between atoms: _277  and  _280
REMARK  108  A    between atoms: _280  and  _281
REMARK  109  A    between atoms: _284  and  _286
REMARK  110  A    between atoms: _286  and  _287
REMARK  111  A    between atoms: _286  and  _289
REMARK  112  A    between atoms: _292  and  _294
REMARK  113  A    between atoms: _294  and  _295
REMARK  114  A    between atoms: _294  and  _297
REMARK  115  A    between atoms: _297  and  _298
REMARK  116  A    between atoms: _301  and  _303
REMARK  117  A    between atoms: _303  and  _304
REMARK  118  A    between atoms: _307  and  _309
REMARK  119  A    between atoms: _309  and  _310
REMARK  120  A    between atoms: _309  and  _312
REMARK  121  A    between atoms: _312  and  _313
REMARK  122  A    between atoms: _316  and  _318
REMARK  123  A    between atoms: _318  and  _319
REMARK  124  A    between atoms: _318  and  _321
REMARK  125  A    between atoms: _321  and  _322
REMARK  126  A    between atoms: _322  and  _323
REMARK  127  A    between atoms: _326  and  _328
REMARK  128  A    between atoms: _328  and  _329
REMARK  129  A    between atoms: _328  and  _331
REMARK  130  A    between atoms: _331  and  _332
REMARK  131  A    between atoms: _337  and  _339
REMARK  132  A    between atoms: _339  and  _340
REMARK  133  A    between atoms: _342  and  _344
REMARK  134  A    between atoms: _344  and  _345
REMARK  135  A    between atoms: _344  and  _347
REMARK  136  A    between atoms: _350  and  _352
REMARK  137  A    between atoms: _352  and  _353
REMARK  138  A    between atoms: _356  and  _358
REMARK  139  A    between atoms: _358  and  _359
REMARK  140  A    between atoms: _358  and  _361
REMARK  141  A    between atoms: _361  and  _362
REMARK  142  A    between atoms: _367  and  _369
REMARK  143  A    between atoms: _369  and  _370
REMARK  144  A    between atoms: _369  and  _372
REMARK  145  A    between atoms: _372  and  _373
REMARK  146  A    between atoms: _373  and  _374
REMARK  147  A    between atoms: _374  and  _375
REMARK  148  A    between atoms: _375  and  _376
REMARK  149  A    between atoms: _380  and  _382
REMARK  150  A    between atoms: _382  and  _383
REMARK  151  A    between atoms: _382  and  _385
REMARK  152  A    between atoms: _385  and  _386
REMARK  153  A    between atoms: _389  and  _391
REMARK  154  A    between atoms: _391  and  _392
REMARK  155  A    between atoms: _391  and  _394
REMARK  156  A    between atoms: _394  and  _395
REMARK  157  A    between atoms: _400  and  _402
REMARK  158  A    between atoms: _402  and  _403
REMARK  159  A    between atoms: _405  and  _407
REMARK  160  A    between atoms: _407  and  _408
REMARK  161  A    between atoms: _407  and  _410
REMARK  162  A    between atoms: _410  and  _411
REMARK  163  A    between atoms: _414  and  _416
REMARK  164  A    between atoms: _416  and  _417
REMARK  165  A    between atoms: _416  and  _419
REMARK  166  A    between atoms: _419  and  _420
REMARK  167  A    between atoms: _420  and  _421
REMARK  168  A    between atoms: _421  and  _422
REMARK  169  A    between atoms: _422  and  _423
REMARK  170  A    between atoms: _427  and  _429
REMARK  171  A    between atoms: _429  and  _430
REMARK  172  A    between atoms: _429  and  _432
REMARK  173  A    between atoms: _432  and  _433
REMARK  174  A    between atoms: _433  and  _434
REMARK  175  A    between atoms: _434  and  _435
REMARK  176  A    between atoms: _444  and  _446
REMARK  177  A    between atoms: _446  and  _447
REMARK  178  A    between atoms: _446  and  _449
REMARK  179  A    between atoms: _449  and  _450
REMARK  180  A    between atoms: _455  and  _457
REMARK  181  A    between atoms: _457  and  _458
REMARK  182  A    between atoms: _457  and  _460
REMARK  183  A    between atoms: _460  and  _461
REMARK  184  A    between atoms: _466  and  _467
REMARK  185  A    between atoms: _469  and  _471
REMARK  186  A    between atoms: _471  and  _472
REMARK  187  A    between atoms: _471  and  _474
REMARK  188  A    between atoms: _474  and  _475
REMARK  189  A    between atoms: _475  and  _476
REMARK  190  A    between atoms: _476  and  _477
REMARK  191  A    between atoms: _477  and  _478
REMARK  192  A    between atoms: _482  and  _484
REMARK  193  A    between atoms: _484  and  _485
REMARK  194  A    between atoms: _484  and  _487
REMARK  195  A    between atoms: _487  and  _488
REMARK  196  A    between atoms: _490  and  _492
REMARK  197  A    between atoms: _492  and  _493
REMARK  198  A    between atoms: _492  and  _495
REMARK  199  A    between atoms: _495  and  _496
REMARK  200  A    between atoms: _499  and  _501
REMARK  201  A    between atoms: _501  and  _502
REMARK  202  A    between atoms: _501  and  _504
REMARK  203  A    between atoms: _504  and  _505
REMARK  204  A    between atoms: _505  and  _506
REMARK  205  A    between atoms: _509  and  _511
REMARK  206  A    between atoms: _511  and  _512
REMARK  207  A    between atoms: _515  and  _517
REMARK  208  A    between atoms: _517  and  _518
REMARK  209  A    between atoms: _517  and  _520
REMARK  210  A    between atoms: _520  and  _521
REMARK  211  A    between atoms: _523  and  _525
REMARK  212  A    between atoms: _525  and  _526
REMARK  213  A    between atoms: _528  and  _530
REMARK  214  A    between atoms: _530  and  _531
REMARK  215  A    between atoms: _530  and  _533
REMARK  216  A    between atoms: _533  and  _534
REMARK  217  A    between atoms: _537  and  _539
REMARK  218  A    between atoms: _539  and  _540
REMARK  219  A    between atoms: _542  and  _544
REMARK  220  A    between atoms: _544  and  _545
REMARK  221  A    between atoms: _544  and  _547
REMARK  222  A    between atoms: _547  and  _548
REMARK  223  A    between atoms: _553  and  _555
REMARK  224  A    between atoms: _555  and  _556
REMARK  225  A    between atoms: _555  and  _558
REMARK  226  A    between atoms: _558  and  _559
REMARK  227  A    between atoms: _559  and  _560
REMARK  228  A    between atoms: _567  and  _568
REMARK  229  A    between atoms: _568  and  _584
REMARK  230  A    between atoms: _569  and  _571
REMARK  231  A    between atoms: _571  and  _572
REMARK  232  A    between atoms: _572  and  _573
REMARK  233  A    between atoms: _577  and  _579
REMARK  234  A    between atoms: _579  and  _580
REMARK  235  A    between atoms: _579  and  _587
REMARK  236  A    between atoms: _580  and  _581
REMARK  237  A    between atoms: _581  and  _582
REMARK  238  A    between atoms: _582  and  _583
REMARK  239  A    between atoms: _583  and  _584
REMARK  240  A    between atoms: _589  and  _591
REMARK  241  A    between atoms: _591  and  _592
REMARK  242  A    between atoms: _591  and  _594
REMARK  243  A    between atoms: _594  and  _595
REMARK  244  A    between atoms: _598  and  _600
REMARK  245  A    between atoms: _600  and  _601
REMARK  246  A    between atoms: _603  and  _605
REMARK  247  A    between atoms: _605  and  _606
REMARK  248  A    between atoms: _609  and  _611
REMARK  249  A    between atoms: _611  and  _612
REMARK  250  A    between atoms: _611  and  _614
REMARK  251  A    between atoms: _614  and  _615
REMARK  252  A    between atoms: _618  and  _620
REMARK  253  A    between atoms: _620  and  _621
REMARK  254  A    between atoms: _620  and  _623
REMARK  255  A    between atoms: _623  and  _624
REMARK  256  A    between atoms: _629  and  _630
REMARK                            x       y       z     vdW  Elec       q    Type
REMARK                         _______ _______ _______ _____ _____    ______ ____
ROOT
ATOM      1  CA  THR A   1      29.791   7.876  25.253  0.00  0.00    +0.160 C 
ENDROOT
BRANCH   1   2
ATOM      2  N   THR A   1      28.536   7.332  24.746  0.00  0.00    -0.237 NA
ATOM      3  H   THR A   1      27.698   7.947  24.705  0.00  0.00    +0.142 HD
ENDBRANCH   1   2
BRANCH   1   4
ATOM      4  C   THR A   1      30.338   7.003  26.376  0.00  0.00    +0.227 C 
ATOM      5  O   THR A   1      31.515   6.600  26.346  0.00  0.00    -0.287 OA
ENDBRANCH   1   4
BRANCH   1   6
ATOM      6  CB  THR A   1      29.650   9.331  25.758  0.00  0.00    +0.134 C 
ATOM      7  CG2 THR A   1      31.002   9.942  25.984  0.00  0.00    +0.034 C 
BRANCH   6   8
ATOM      8  OG1 THR A   1      28.957  10.122  24.787  0.00  0.00    -0.383 OA
ATOM      9  HG1 THR A   1      29.465  10.120  23.937  0.00  0.00    +0.210 HD
ENDBRANCH   6   8
ENDBRANCH   1   6
TORSDOF 4
REMARK  Name = ../refined-set-2016/3syr/3syr_pocket.pdb
REMARK  256 active torsions:
REMARK  status: ('A' for Active; 'I' for Inactive)
REMARK    1  A    between atoms: _1  and  _3
REMARK    2  A    between atoms: _3  and  _4
REMARK    3  A    between atoms: _3  and  _6
REMARK    4  A    between atoms: _6  and  _7
REMARK    5  A    between atoms: _12  and  _13
REMARK    6  A    between atoms: _15  and  _17
REMARK    7  A    between atoms: _17  and  _18
REMARK    8  A    between atoms: _17  and  _20
REMARK    9  A    between atoms: _20  and  _21
REMARK   10  A    between atoms: _21  and  _22
REMARK   11  A    between atoms: _25  and  _27
REMARK   12  A    between atoms: _27  and  _28
REMARK   13  A    between atoms: _27  and  _30
REMARK   14  A    between atoms: _30  and  _31
REMARK   15  A    between atoms: _36  and  _37
REMARK   16  A    between atoms: _39  and  _41
REMARK   17  A    between atoms: _41  and  _42
REMARK   18  A    between atoms: _41  and  _44
REMARK   19  A    between atoms: _44  and  _45
REMARK   20  A    between atoms: _50  and  _52
REMARK   21  A    between atoms: _52  and  _53
REMARK   22  A    between atoms: _55  and  _57
REMARK   23  A    between atoms: _57  and  _58
REMARK   24  A    between atoms: _60  and  _62
REMARK   25  A    between atoms: _62  and  _63
REMARK   26  A    between atoms: _62  and  _65
REMARK   27  A    between atoms: _65  and  _66
REMARK   28  A    between atoms: _69  and  _71
REMARK   29  A    between atoms: _71  and  _72
REMARK   30  A    between atoms: _74  and  _76
REMARK   31  A    between atoms: _76  and  _77
REMARK   32  A    between atoms: _76  and  _79
REMARK   33  A    between atoms: _79  and  _80
REMARK   34  A    between atoms: _80  and  _81
REMARK   35  A    between atoms: _81  and  _82
REMARK   36  A    between atoms: _91  and  _93
REMARK   37  A    between atoms: _93  and  _94
REMARK   38  A    between atoms: _93  and  _96
REMARK   39  A    between atoms: _96  and  _97
REMARK   40  A    between atoms: _100  and  _102
REMARK   41  A    between atoms: _102  and  _103
REMARK   42  A    between atoms: _106  and  _108
REMARK   43  A    between atoms: _108  and  _109
REMARK   44  A    between atoms: _108  and  _111
REMARK   45  A    between atoms: _111  and  _112
REMARK   46  A    between atoms: _118  and  _120
REMARK   47  A    between atoms: _120  and  _121
REMARK   48  A    between atoms: _120  and  _123
REMARK   49  A    between atoms: _123  and  _124
REMARK   50  A    between atoms: _129  and  _131
REMARK   51  A    between atoms: _131  and  _132
REMARK   52  A    between atoms: _131  and  _134
REMARK   53  A    between atoms: _134  and  _135
REMARK   54  A    between atoms: _138  and  _140
REMARK   55  A    between atoms: _140  and  _141
REMARK   56  A    between atoms: _140  and  _143
REMARK   57  A    between atoms: _143  and  _144
REMARK   58  A    between atoms: _149  and  _151
REMARK   59  A    between atoms: _151  and  _152
REMARK   60  A    between atoms: _151  and  _154
REMARK   61  A    between atoms: _154  and  _155
REMARK   62  A    between atoms: _161  and  _163
REMARK   63  A    between atoms: _163  and  _164
REMARK   64  A    between atoms: _163  and  _166
REMARK   65  A    between atoms: _166  and  _167
REMARK   66  A    between atoms: _173  and  _175
REMARK   67  A    between atoms: _175  and  _176
REMARK   68  A    between atoms: _175  and  _178
REMARK   69  A    between atoms: _178  and  _179
REMARK   70  A    between atoms: _179  and  _180
REMARK   71  A    between atoms: _180  and  _181
REMARK   72  A    between atoms: _190  and  _192
REMARK   73  A    between atoms: _192  and  _193
REMARK   74  A    between atoms: _192  and  _195
REMARK   75  A    between atoms: _195  and  _196
REMARK   76  A    between atoms: _201  and  _203
REMARK   77  A    between atoms: _203  and  _204
REMARK   78  A    between atoms: _203  and  _206
REMARK   79  A    between atoms: _206  and  _207
REMARK   80  A    between atoms: _210  and  _212
REMARK   81  A    between atoms: _212  and  _213
REMARK   82  A    between atoms: _212  and  _215
REMARK   83  A    between atoms: _215  and  _216
REMARK   84  A    between atoms: _219  and  _221
REMARK   85  A    between atoms: _221  and  _222
REMARK   86  A    between atoms: _221  and  _224
REMARK   87  A    between atoms: _224  and  _225
REMARK   88  A    between atoms: _230  and  _232
REMARK   89  A    between atoms: _232  and  _233
REMARK   90  A    between atoms: _232  and  _235
REMARK   91  A    between atoms: _235  and  _236
REMARK   92  A    between atoms: _241  and  _242
REMARK   93  A    between atoms: _244  and  _246
REMARK   94  A    between atoms: _246  and  _247
REMARK   95  A    between atoms: _246  and  _249
REMARK   96  A    between atoms: _249  and  _250
REMARK   97  A    between atoms: _253  and  _255
REMARK   98  A    between atoms: _255  and  _256
REMARK   99  A    between atoms: _255  and  _258
REMARK  100  A    between atoms: _258  and  _259
REMARK  101  A    between atoms: _264  and  _266
REMARK  102  A    between atoms: _266  and  _267
REMARK  103  A    between atoms: _266  and  _269
REMARK  104  A    between atoms: _269  and  _270
REMARK  105  A    between atoms: _275  and  _277
REMARK  106  A    between atoms: _277  and  _278
REMARK  107  A    between atoms: _277  and  _280
REMARK  108  A    between atoms: _280  and  _281
REMARK  109  A    between atoms: _284  and  _286
REMARK  110  A    between atoms: _286  and  _287
REMARK  111  A    between atoms: _286  and  _289
REMARK  112  A    between atoms: _292  and  _294
REMARK  113  A    between atoms: _294  and  _295
REMARK  114  A    between atoms: _294  and  _297
REMARK  115  A    between atoms: _297  and  _298
REMARK  116  A    between atoms: _301  and  _303
REMARK  117  A    between atoms: _303  and  _304
REMARK  118  A    between atoms: _307  and  _309
REMARK  119  A    between atoms: _309  and  _310
REMARK  120  A    between atoms: _309  and  _312
REMARK  121  A    between atoms: _312  and  _313
REMARK  122  A    between atoms: _316  and  _318
REMARK  123  A    between atoms: _318  and  _319
REMARK  124  A    between atoms: _318  and  _321
REMARK  125  A    between atoms: _321  and  _322
REMARK  126  A    between atoms: _322  and  _323
REMARK  127  A    between atoms: _326  and  _328
REMARK  128  A    between atoms: _328  and  _329
REMARK  129  A    between atoms: _328  and  _331
REMARK  130  A    between atoms: _331  and  _332
REMARK  131  A    between atoms: _337  and  _339
REMARK  132  A    between atoms: _339  and  _340
REMARK  133  A    between atoms: _342  and  _344
REMARK  134  A    between atoms: _344  and  _345
REMARK  135  A    between atoms: _344  and  _347
REMARK  136  A    between atoms: _350  and  _352
REMARK  137  A    between atoms: _352  and  _353
REMARK  138  A    between atoms: _356  and  _358
REMARK  139  A    between atoms: _358  and  _359
REMARK  140  A    between atoms: _358  and  _361
REMARK  141  A    between atoms: _361  and  _362
REMARK  142  A    between atoms: _367  and  _369
REMARK  143  A    between atoms: _369  and  _370
REMARK  144  A    between atoms: _369  and  _372
REMARK  145  A    between atoms: _372  and  _373
REMARK  146  A    between atoms: _373  and  _374
REMARK  147  A    between atoms: _374  and  _375
REMARK  148  A    between atoms: _375  and  _376
REMARK  149  A    between atoms: _380  and  _382
REMARK  150  A    between atoms: _382  and  _383
REMARK  151  A    between atoms: _382  and  _385
REMARK  152  A    between atoms: _385  and  _386
REMARK  153  A    between atoms: _389  and  _391
REMARK  154  A    between atoms: _391  and  _392
REMARK  155  A    between atoms: _391  and  _394
REMARK  156  A    between atoms: _394  and  _395
REMARK  157  A    between atoms: _400  and  _402
REMARK  158  A    between atoms: _402  and  _403
REMARK  159  A    between atoms: _405  and  _407
REMARK  160  A    between atoms: _407  and  _408
REMARK  161  A    between atoms: _407  and  _410
REMARK  162  A    between atoms: _410  and  _411
REMARK  163  A    between atoms: _414  and  _416
REMARK  164  A    between atoms: _416  and  _417
REMARK  165  A    between atoms: _416  and  _419
REMARK  166  A    between atoms: _419  and  _420
REMARK  167  A    between atoms: _420  and  _421
REMARK  168  A    between atoms: _421  and  _422
REMARK  169  A    between atoms: _422  and  _423
REMARK  170  A    between atoms: _427  and  _429
REMARK  171  A    between atoms: _429  and  _430
REMARK  172  A    between atoms: _429  and  _432
REMARK  173  A    between atoms: _432  and  _433
REMARK  174  A    between atoms: _433  and  _434
REMARK  175  A    between atoms: _434  and  _435
REMARK  176  A    between atoms: _444  and  _446
REMARK  177  A    between atoms: _446  and  _447
REMARK  178  A    between atoms: _446  and  _449
REMARK  179  A    between atoms: _449  and  _450
REMARK  180  A    between atoms: _455  and  _457
REMARK  181  A    between atoms: _457  and  _458
REMARK  182  A    between atoms: _457  and  _460
REMARK  183  A    between atoms: _460  and  _461
REMARK  184  A    between atoms: _466  and  _467
REMARK  185  A    between atoms: _469  and  _471
REMARK  186  A    between atoms: _471  and  _472
REMARK  187  A    between atoms: _471  and  _474
REMARK  188  A    between atoms: _474  and  _475
REMARK  189  A    between atoms: _475  and  _476
REMARK  190  A    between atoms: _476  and  _477
REMARK  191  A    between atoms: _477  and  _478
REMARK  192  A    between atoms: _482  and  _484
REMARK  193  A    between atoms: _484  and  _485
REMARK  194  A    between atoms: _484  and  _487
REMARK  195  A    between atoms: _487  and  _488
REMARK  196  A    between atoms: _490  and  _492
REMARK  197  A    between atoms: _492  and  _493
REMARK  198  A    between atoms: _492  and  _495
REMARK  199  A    between atoms: _495  and  _496
REMARK  200  A    between atoms: _499  and  _501
REMARK  201  A    between atoms: _501  and  _502
REMARK  202  A    between atoms: _501  and  _504
REMARK  203  A    between atoms: _504  and  _505
REMARK  204  A    between atoms: _505  and  _506
REMARK  205  A    between atoms: _509  and  _511
REMARK  206  A    between atoms: _511  and  _512
REMARK  207  A    between atoms: _515  and  _517
REMARK  208  A    between atoms: _517  and  _518
REMARK  209  A    between atoms: _517  and  _520
REMARK  210  A    between atoms: _520  and  _521
REMARK  211  A    between atoms: _523  and  _525
REMARK  212  A    between atoms: _525  and  _526
REMARK  213  A    between atoms: _528  and  _530
REMARK  214  A    between atoms: _530  and  _531
REMARK  215  A    between atoms: _530  and  _533
REMARK  216  A    between atoms: _533  and  _534
REMARK  217  A    between atoms: _537  and  _539
REMARK  218  A    between atoms: _539  and  _540
REMARK  219  A    between atoms: _542  and  _544
REMARK  220  A    between atoms: _544  and  _545
REMARK  221  A    between atoms: _544  and  _547
REMARK  222  A    between atoms: _547  and  _548
REMARK  223  A    between atoms: _553  and  _555
REMARK  224  A    between atoms: _555  and  _556
REMARK  225  A    between atoms: _555  and  _558
REMARK  226  A    between atoms: _558  and  _559
REMARK  227  A    between atoms: _559  and  _560
REMARK  228  A    between atoms: _567  and  _568
REMARK  229  A    between atoms: _568  and  _584
REMARK  230  A    between atoms: _569  and  _571
REMARK  231  A    between atoms: _571  and  _572
REMARK  232  A    between atoms: _572  and  _573
REMARK  233  A    between atoms: _577  and  _579
REMARK  234  A    between atoms: _579  and  _580
REMARK  235  A    between atoms: _579  and  _587
REMARK  236  A    between atoms: _580  and  _581
REMARK  237  A    between atoms: _581  and  _582
REMARK  238  A    between atoms: _582  and  _583
REMARK  239  A    between atoms: _583  and  _584
REMARK  240  A    between atoms: _589  and  _591
REMARK  241  A    between atoms: _591  and  _592
REMARK  242  A    between atoms: _591  and  _594
REMARK  243  A    between atoms: _594  and  _595
REMARK  244  A    between atoms: _598  and  _600
REMARK  245  A    between atoms: _600  and  _601
REMARK  246  A    between atoms: _603  and  _605
REMARK  247  A    between atoms: _605  and  _606
REMARK  248  A    between atoms: _609  and  _611
REMARK  249  A    between atoms: _611  and  _612
REMARK  250  A    between atoms: _611  and  _614
REMARK  251  A    between atoms: _614  and  _615
REMARK  252  A    between atoms: _618  and  _620
REMARK  253  A    between atoms: _620  and  _621
REMARK  254  A    between atoms: _620  and  _623
REMARK  255  A    between atoms: _623  and  _624
REMARK  256  A    between atoms: _629  and  _630
REMARK                            x       y       z     vdW  Elec       q    Type
REMARK                         _______ _______ _______ _____ _____    ______ ____
ROOT
ATOM      1  CG  TYR A   1      34.580   7.557  28.867  0.00  0.00    -0.020 A 
ATOM      2  CD2 TYR A   1      35.711   8.203  29.373  0.00  0.00    -0.001 A 
ATOM      3  CE2 TYR A   1      35.945   9.581  29.116  0.00  0.00    +0.036 A 
ATOM      4  CZ  TYR A   1      35.031  10.300  28.351  0.00  0.00    +0.134 A 
ATOM      5  CE1 TYR A   1      33.895   9.687  27.846  0.00  0.00    +0.036 A 
ATOM      6  CD1 TYR A   1      33.664   8.324  28.115  0.00  0.00    -0.001 A 
ENDROOT
BRANCH   4   7
ATOM      7  OH  TYR A   1      35.235  11.631  28.087  0.00  0.00    -0.506 OA
ATOM      8  HH  TYR A   1      34.489  11.975  27.534  0.00  0.00    +0.292 HD
ENDBRANCH   4   7
BRANCH   1   9
ATOM      9  CB  TYR A   1      34.313   6.081  29.170  0.00  0.00    +0.051 C 
BRANCH   9  10
ATOM     10  CA  TYR A   1      34.828   5.038  28.140  0.00  0.00    +0.137 C 
BRANCH  10  11
ATOM     11  N   TYR A   1      33.898   4.869  26.999  0.00  0.00    -0.239 NA
ATOM     12  H   TYR A   1      33.040   5.455  26.957  0.00  0.00    +0.142 HD
ENDBRANCH  10  11
BRANCH  10  13
ATOM     13  C   TYR A   1      35.029   3.692  28.857  0.00  0.00    +0.224 C 
ATOM     14  O   TYR A   1      36.144   3.274  29.120  0.00  0.00    -0.287 OA
ENDBRANCH  10  13
ENDBRANCH   9  10
ENDBRANCH   1   9
TORSDOF 5
REMARK  Name = ../refined-set-2016/3syr/3syr_pocket.pdb
REMARK  256 active torsions:
REMARK  status: ('A' for Active; 'I' for Inactive)
REMARK    1  A    between atoms: _1  and  _3
REMARK    2  A    between atoms: _3  and  _4
REMARK    3  A    between atoms: _3  and  _6
REMARK    4  A    between atoms: _6  and  _7
REMARK    5  A    between atoms: _12  and  _13
REMARK    6  A    between atoms: _15  and  _17
REMARK    7  A    between atoms: _17  and  _18
REMARK    8  A    between atoms: _17  and  _20
REMARK    9  A    between atoms: _20  and  _21
REMARK   10  A    between atoms: _21  and  _22
REMARK   11  A    between atoms: _25  and  _27
REMARK   12  A    between atoms: _27  and  _28
REMARK   13  A    between atoms: _27  and  _30
REMARK   14  A    between atoms: _30  and  _31
REMARK   15  A    between atoms: _36  and  _37
REMARK   16  A    between atoms: _39  and  _41
REMARK   17  A    between atoms: _41  and  _42
REMARK   18  A    between atoms: _41  and  _44
REMARK   19  A    between atoms: _44  and  _45
REMARK   20  A    between atoms: _50  and  _52
REMARK   21  A    between atoms: _52  and  _53
REMARK   22  A    between atoms: _55  and  _57
REMARK   23  A    between atoms: _57  and  _58
REMARK   24  A    between atoms: _60  and  _62
REMARK   25  A    between atoms: _62  and  _63
REMARK   26  A    between atoms: _62  and  _65
REMARK   27  A    between atoms: _65  and  _66
REMARK   28  A    between atoms: _69  and  _71
REMARK   29  A    between atoms: _71  and  _72
REMARK   30  A    between atoms: _74  and  _76
REMARK   31  A    between atoms: _76  and  _77
REMARK   32  A    between atoms: _76  and  _79
REMARK   33  A    between atoms: _79  and  _80
REMARK   34  A    between atoms: _80  and  _81
REMARK   35  A    between atoms: _81  and  _82
REMARK   36  A    between atoms: _91  and  _93
REMARK   37  A    between atoms: _93  and  _94
REMARK   38  A    between atoms: _93  and  _96
REMARK   39  A    between atoms: _96  and  _97
REMARK   40  A    between atoms: _100  and  _102
REMARK   41  A    between atoms: _102  and  _103
REMARK   42  A    between atoms: _106  and  _108
REMARK   43  A    between atoms: _108  and  _109
REMARK   44  A    between atoms: _108  and  _111
REMARK   45  A    between atoms: _111  and  _112
REMARK   46  A    between atoms: _118  and  _120
REMARK   47  A    between atoms: _120  and  _121
REMARK   48  A    between atoms: _120  and  _123
REMARK   49  A    between atoms: _123  and  _124
REMARK   50  A    between atoms: _129  and  _131
REMARK   51  A    between atoms: _131  and  _132
REMARK   52  A    between atoms: _131  and  _134
REMARK   53  A    between atoms: _134  and  _135
REMARK   54  A    between atoms: _138  and  _140
REMARK   55  A    between atoms: _140  and  _141
REMARK   56  A    between atoms: _140  and  _143
REMARK   57  A    between atoms: _143  and  _144
REMARK   58  A    between atoms: _149  and  _151
REMARK   59  A    between atoms: _151  and  _152
REMARK   60  A    between atoms: _151  and  _154
REMARK   61  A    between atoms: _154  and  _155
REMARK   62  A    between atoms: _161  and  _163
REMARK   63  A    between atoms: _163  and  _164
REMARK   64  A    between atoms: _163  and  _166
REMARK   65  A    between atoms: _166  and  _167
REMARK   66  A    between atoms: _173  and  _175
REMARK   67  A    between atoms: _175  and  _176
REMARK   68  A    between atoms: _175  and  _178
REMARK   69  A    between atoms: _178  and  _179
REMARK   70  A    between atoms: _179  and  _180
REMARK   71  A    between atoms: _180  and  _181
REMARK   72  A    between atoms: _190  and  _192
REMARK   73  A    between atoms: _192  and  _193
REMARK   74  A    between atoms: _192  and  _195
REMARK   75  A    between atoms: _195  and  _196
REMARK   76  A    between atoms: _201  and  _203
REMARK   77  A    between atoms: _203  and  _204
REMARK   78  A    between atoms: _203  and  _206
REMARK   79  A    between atoms: _206  and  _207
REMARK   80  A    between atoms: _210  and  _212
REMARK   81  A    between atoms: _212  and  _213
REMARK   82  A    between atoms: _212  and  _215
REMARK   83  A    between atoms: _215  and  _216
REMARK   84  A    between atoms: _219  and  _221
REMARK   85  A    between atoms: _221  and  _222
REMARK   86  A    between atoms: _221  and  _224
REMARK   87  A    between atoms: _224  and  _225
REMARK   88  A    between atoms: _230  and  _232
REMARK   89  A    between atoms: _232  and  _233
REMARK   90  A    between atoms: _232  and  _235
REMARK   91  A    between atoms: _235  and  _236
REMARK   92  A    between atoms: _241  and  _242
REMARK   93  A    between atoms: _244  and  _246
REMARK   94  A    between atoms: _246  and  _247
REMARK   95  A    between atoms: _246  and  _249
REMARK   96  A    between atoms: _249  and  _250
REMARK   97  A    between atoms: _253  and  _255
REMARK   98  A    between atoms: _255  and  _256
REMARK   99  A    between atoms: _255  and  _258
REMARK  100  A    between atoms: _258  and  _259
REMARK  101  A    between atoms: _264  and  _266
REMARK  102  A    between atoms: _266  and  _267
REMARK  103  A    between atoms: _266  and  _269
REMARK  104  A    between atoms: _269  and  _270
REMARK  105  A    between atoms: _275  and  _277
REMARK  106  A    between atoms: _277  and  _278
REMARK  107  A    between atoms: _277  and  _280
REMARK  108  A    between atoms: _280  and  _281
REMARK  109  A    between atoms: _284  and  _286
REMARK  110  A    between atoms: _286  and  _287
REMARK  111  A    between atoms: _286  and  _289
REMARK  112  A    between atoms: _292  and  _294
REMARK  113  A    between atoms: _294  and  _295
REMARK  114  A    between atoms: _294  and  _297
REMARK  115  A    between atoms: _297  and  _298
REMARK  116  A    between atoms: _301  and  _303
REMARK  117  A    between atoms: _303  and  _304
REMARK  118  A    between atoms: _307  and  _309
REMARK  119  A    between atoms: _309  and  _310
REMARK  120  A    between atoms: _309  and  _312
REMARK  121  A    between atoms: _312  and  _313
REMARK  122  A    between atoms: _316  and  _318
REMARK  123  A    between atoms: _318  and  _319
REMARK  124  A    between atoms: _318  and  _321
REMARK  125  A    between atoms: _321  and  _322
REMARK  126  A    between atoms: _322  and  _323
REMARK  127  A    between atoms: _326  and  _328
REMARK  128  A    between atoms: _328  and  _329
REMARK  129  A    between atoms: _328  and  _331
REMARK  130  A    between atoms: _331  and  _332
REMARK  131  A    between atoms: _337  and  _339
REMARK  132  A    between atoms: _339  and  _340
REMARK  133  A    between atoms: _342  and  _344
REMARK  134  A    between atoms: _344  and  _345
REMARK  135  A    between atoms: _344  and  _347
REMARK  136  A    between atoms: _350  and  _352
REMARK  137  A    between atoms: _352  and  _353
REMARK  138  A    between atoms: _356  and  _358
REMARK  139  A    between atoms: _358  and  _359
REMARK  140  A    between atoms: _358  and  _361
REMARK  141  A    between atoms: _361  and  _362
REMARK  142  A    between atoms: _367  and  _369
REMARK  143  A    between atoms: _369  and  _370
REMARK  144  A    between atoms: _369  and  _372
REMARK  145  A    between atoms: _372  and  _373
REMARK  146  A    between atoms: _373  and  _374
REMARK  147  A    between atoms: _374  and  _375
REMARK  148  A    between atoms: _375  and  _376
REMARK  149  A    between atoms: _380  and  _382
REMARK  150  A    between atoms: _382  and  _383
REMARK  151  A    between atoms: _382  and  _385
REMARK  152  A    between atoms: _385  and  _386
REMARK  153  A    between atoms: _389  and  _391
REMARK  154  A    between atoms: _391  and  _392
REMARK  155  A    between atoms: _391  and  _394
REMARK  156  A    between atoms: _394  and  _395
REMARK  157  A    between atoms: _400  and  _402
REMARK  158  A    between atoms: _402  and  _403
REMARK  159  A    between atoms: _405  and  _407
REMARK  160  A    between atoms: _407  and  _408
REMARK  161  A    between atoms: _407  and  _410
REMARK  162  A    between atoms: _410  and  _411
REMARK  163  A    between atoms: _414  and  _416
REMARK  164  A    between atoms: _416  and  _417
REMARK  165  A    between atoms: _416  and  _419
REMARK  166  A    between atoms: _419  and  _420
REMARK  167  A    between atoms: _420  and  _421
REMARK  168  A    between atoms: _421  and  _422
REMARK  169  A    between atoms: _422  and  _423
REMARK  170  A    between atoms: _427  and  _429
REMARK  171  A    between atoms: _429  and  _430
REMARK  172  A    between atoms: _429  and  _432
REMARK  173  A    between atoms: _432  and  _433
REMARK  174  A    between atoms: _433  and  _434
REMARK  175  A    between atoms: _434  and  _435
REMARK  176  A    between atoms: _444  and  _446
REMARK  177  A    between atoms: _446  and  _447
REMARK  178  A    between atoms: _446  and  _449
REMARK  179  A    between atoms: _449  and  _450
REMARK  180  A    between atoms: _455  and  _457
REMARK  181  A    between atoms: _457  and  _458
REMARK  182  A    between atoms: _457  and  _460
REMARK  183  A    between atoms: _460  and  _461
REMARK  184  A    between atoms: _466  and  _467
REMARK  185  A    between atoms: _469  and  _471
REMARK  186  A    between atoms: _471  and  _472
REMARK  187  A    between atoms: _471  and  _474
REMARK  188  A    between atoms: _474  and  _475
REMARK  189  A    between atoms: _475  and  _476
REMARK  190  A    between atoms: _476  and  _477
REMARK  191  A    between atoms: _477  and  _478
REMARK  192  A    between atoms: _482  and  _484
REMARK  193  A    between atoms: _484  and  _485
REMARK  194  A    between atoms: _484  and  _487
REMARK  195  A    between atoms: _487  and  _488
REMARK  196  A    between atoms: _490  and  _492
REMARK  197  A    between atoms: _492  and  _493
REMARK  198  A    between atoms: _492  and  _495
REMARK  199  A    between atoms: _495  and  _496
REMARK  200  A    between atoms: _499  and  _501
REMARK  201  A    between atoms: _501  and  _502
REMARK  202  A    between atoms: _501  and  _504
REMARK  203  A    between atoms: _504  and  _505
REMARK  204  A    between atoms: _505  and  _506
REMARK  205  A    between atoms: _509  and  _511
REMARK  206  A    between atoms: _511  and  _512
REMARK  207  A    between atoms: _515  and  _517
REMARK  208  A    between atoms: _517  and  _518
REMARK  209  A    between atoms: _517  and  _520
REMARK  210  A    between atoms: _520  and  _521
REMARK  211  A    between atoms: _523  and  _525
REMARK  212  A    between atoms: _525  and  _526
REMARK  213  A    between atoms: _528  and  _530
REMARK  214  A    between atoms: _530  and  _531
REMARK  215  A    between atoms: _530  and  _533
REMARK  216  A    between atoms: _533  and  _534
REMARK  217  A    between atoms: _537  and  _539
REMARK  218  A    between atoms: _539  and  _540
REMARK  219  A    between atoms: _542  and  _544
REMARK  220  A    between atoms: _544  and  _545
REMARK  221  A    between atoms: _544  and  _547
REMARK  222  A    between atoms: _547  and  _548
REMARK  223  A    between atoms: _553  and  _555
REMARK  224  A    between atoms: _555  and  _556
REMARK  225  A    between atoms: _555  and  _558
REMARK  226  A    between atoms: _558  and  _559
REMARK  227  A    between atoms: _559  and  _560
REMARK  228  A    between atoms: _567  and  _568
REMARK  229  A    between atoms: _568  and  _584
REMARK  230  A    between atoms: _569  and  _571
REMARK  231  A    between atoms: _571  and  _572
REMARK  232  A    between atoms: _572  and  _573
REMARK  233  A    between atoms: _577  and  _579
REMARK  234  A    between atoms: _579  and  _580
REMARK  235  A    between atoms: _579  and  _587
REMARK  236  A    between atoms: _580  and  _581
REMARK  237  A    between atoms: _581  and  _582
REMARK  238  A    between atoms: _582  and  _583
REMARK  239  A    between atoms: _583  and  _584
REMARK  240  A    between atoms: _589  and  _591
REMARK  241  A    between atoms: _591  and  _592
REMARK  242  A    between atoms: _591  and  _594
REMARK  243  A    between atoms: _594  and  _595
REMARK  244  A    between atoms: _598  and  _600
REMARK  245  A    between atoms: _600  and  _601
REMARK  246  A    between atoms: _603  and  _605
REMARK  247  A    between atoms: _605  and  _606
REMARK  248  A    between atoms: _609  and  _611
REMARK  249  A    between atoms: _611  and  _612
REMARK  250  A    between atoms: _611  and  _614
REMARK  251  A    between atoms: _614  and  _615
REMARK  252  A    between atoms: _618  and  _620
REMARK  253  A    between atoms: _620  and  _621
REMARK  254  A    between atoms: _620  and  _623
REMARK  255  A    between atoms: _623  and  _624
REMARK  256  A    between atoms: _629  and  _630
REMARK                            x       y       z     vdW  Elec       q    Type
REMARK                         _______ _______ _______ _____ _____    ______ ____
ROOT
ATOM      1  O   HOH     1      33.591  12.717  26.340  0.00  0.00    +0.000 OA
ENDROOT
TORSDOF 0
REMARK  Name = ../refined-set-2016/3syr/3syr_pocket.pdb
REMARK  256 active torsions:
REMARK  status: ('A' for Active; 'I' for Inactive)
REMARK    1  A    between atoms: _1  and  _3
REMARK    2  A    between atoms: _3  and  _4
REMARK    3  A    between atoms: _3  and  _6
REMARK    4  A    between atoms: _6  and  _7
REMARK    5  A    between atoms: _12  and  _13
REMARK    6  A    between atoms: _15  and  _17
REMARK    7  A    between atoms: _17  and  _18
REMARK    8  A    between atoms: _17  and  _20
REMARK    9  A    between atoms: _20  and  _21
REMARK   10  A    between atoms: _21  and  _22
REMARK   11  A    between atoms: _25  and  _27
REMARK   12  A    between atoms: _27  and  _28
REMARK   13  A    between atoms: _27  and  _30
REMARK   14  A    between atoms: _30  and  _31
REMARK   15  A    between atoms: _36  and  _37
REMARK   16  A    between atoms: _39  and  _41
REMARK   17  A    between atoms: _41  and  _42
REMARK   18  A    between atoms: _41  and  _44
REMARK   19  A    between atoms: _44  and  _45
REMARK   20  A    between atoms: _50  and  _52
REMARK   21  A    between atoms: _52  and  _53
REMARK   22  A    between atoms: _55  and  _57
REMARK   23  A    between atoms: _57  and  _58
REMARK   24  A    between atoms: _60  and  _62
REMARK   25  A    between atoms: _62  and  _63
REMARK   26  A    between atoms: _62  and  _65
REMARK   27  A    between atoms: _65  and  _66
REMARK   28  A    between atoms: _69  and  _71
REMARK   29  A    between atoms: _71  and  _72
REMARK   30  A    between atoms: _74  and  _76
REMARK   31  A    between atoms: _76  and  _77
REMARK   32  A    between atoms: _76  and  _79
REMARK   33  A    between atoms: _79  and  _80
REMARK   34  A    between atoms: _80  and  _81
REMARK   35  A    between atoms: _81  and  _82
REMARK   36  A    between atoms: _91  and  _93
REMARK   37  A    between atoms: _93  and  _94
REMARK   38  A    between atoms: _93  and  _96
REMARK   39  A    between atoms: _96  and  _97
REMARK   40  A    between atoms: _100  and  _102
REMARK   41  A    between atoms: _102  and  _103
REMARK   42  A    between atoms: _106  and  _108
REMARK   43  A    between atoms: _108  and  _109
REMARK   44  A    between atoms: _108  and  _111
REMARK   45  A    between atoms: _111  and  _112
REMARK   46  A    between atoms: _118  and  _120
REMARK   47  A    between atoms: _120  and  _121
REMARK   48  A    between atoms: _120  and  _123
REMARK   49  A    between atoms: _123  and  _124
REMARK   50  A    between atoms: _129  and  _131
REMARK   51  A    between atoms: _131  and  _132
REMARK   52  A    between atoms: _131  and  _134
REMARK   53  A    between atoms: _134  and  _135
REMARK   54  A    between atoms: _138  and  _140
REMARK   55  A    between atoms: _140  and  _141
REMARK   56  A    between atoms: _140  and  _143
REMARK   57  A    between atoms: _143  and  _144
REMARK   58  A    between atoms: _149  and  _151
REMARK   59  A    between atoms: _151  and  _152
REMARK   60  A    between atoms: _151  and  _154
REMARK   61  A    between atoms: _154  and  _155
REMARK   62  A    between atoms: _161  and  _163
REMARK   63  A    between atoms: _163  and  _164
REMARK   64  A    between atoms: _163  and  _166
REMARK   65  A    between atoms: _166  and  _167
REMARK   66  A    between atoms: _173  and  _175
REMARK   67  A    between atoms: _175  and  _176
REMARK   68  A    between atoms: _175  and  _178
REMARK   69  A    between atoms: _178  and  _179
REMARK   70  A    between atoms: _179  and  _180
REMARK   71  A    between atoms: _180  and  _181
REMARK   72  A    between atoms: _190  and  _192
REMARK   73  A    between atoms: _192  and  _193
REMARK   74  A    between atoms: _192  and  _195
REMARK   75  A    between atoms: _195  and  _196
REMARK   76  A    between atoms: _201  and  _203
REMARK   77  A    between atoms: _203  and  _204
REMARK   78  A    between atoms: _203  and  _206
REMARK   79  A    between atoms: _206  and  _207
REMARK   80  A    between atoms: _210  and  _212
REMARK   81  A    between atoms: _212  and  _213
REMARK   82  A    between atoms: _212  and  _215
REMARK   83  A    between atoms: _215  and  _216
REMARK   84  A    between atoms: _219  and  _221
REMARK   85  A    between atoms: _221  and  _222
REMARK   86  A    between atoms: _221  and  _224
REMARK   87  A    between atoms: _224  and  _225
REMARK   88  A    between atoms: _230  and  _232
REMARK   89  A    between atoms: _232  and  _233
REMARK   90  A    between atoms: _232  and  _235
REMARK   91  A    between atoms: _235  and  _236
REMARK   92  A    between atoms: _241  and  _242
REMARK   93  A    between atoms: _244  and  _246
REMARK   94  A    between atoms: _246  and  _247
REMARK   95  A    between atoms: _246  and  _249
REMARK   96  A    between atoms: _249  and  _250
REMARK   97  A    between atoms: _253  and  _255
REMARK   98  A    between atoms: _255  and  _256
REMARK   99  A    between atoms: _255  and  _258
REMARK  100  A    between atoms: _258  and  _259
REMARK  101  A    between atoms: _264  and  _266
REMARK  102  A    between atoms: _266  and  _267
REMARK  103  A    between atoms: _266  and  _269
REMARK  104  A    between atoms: _269  and  _270
REMARK  105  A    between atoms: _275  and  _277
REMARK  106  A    between atoms: _277  and  _278
REMARK  107  A    between atoms: _277  and  _280
REMARK  108  A    between atoms: _280  and  _281
REMARK  109  A    between atoms: _284  and  _286
REMARK  110  A    between atoms: _286  and  _287
REMARK  111  A    between atoms: _286  and  _289
REMARK  112  A    between atoms: _292  and  _294
REMARK  113  A    between atoms: _294  and  _295
REMARK  114  A    between atoms: _294  and  _297
REMARK  115  A    between atoms: _297  and  _298
REMARK  116  A    between atoms: _301  and  _303
REMARK  117  A    between atoms: _303  and  _304
REMARK  118  A    between atoms: _307  and  _309
REMARK  119  A    between atoms: _309  and  _310
REMARK  120  A    between atoms: _309  and  _312
REMARK  121  A    between atoms: _312  and  _313
REMARK  122  A    between atoms: _316  and  _318
REMARK  123  A    between atoms: _318  and  _319
REMARK  124  A    between atoms: _318  and  _321
REMARK  125  A    between atoms: _321  and  _322
REMARK  126  A    between atoms: _322  and  _323
REMARK  127  A    between atoms: _326  and  _328
REMARK  128  A    between atoms: _328  and  _329
REMARK  129  A    between atoms: _328  and  _331
REMARK  130  A    between atoms: _331  and  _332
REMARK  131  A    between atoms: _337  and  _339
REMARK  132  A    between atoms: _339  and  _340
REMARK  133  A    between atoms: _342  and  _344
REMARK  134  A    between atoms: _344  and  _345
REMARK  135  A    between atoms: _344  and  _347
REMARK  136  A    between atoms: _350  and  _352
REMARK  137  A    between atoms: _352  and  _353
REMARK  138  A    between atoms: _356  and  _358
REMARK  139  A    between atoms: _358  and  _359
REMARK  140  A    between atoms: _358  and  _361
REMARK  141  A    between atoms: _361  and  _362
REMARK  142  A    between atoms: _367  and  _369
REMARK  143  A    between atoms: _369  and  _370
REMARK  144  A    between atoms: _369  and  _372
REMARK  145  A    between atoms: _372  and  _373
REMARK  146  A    between atoms: _373  and  _374
REMARK  147  A    between atoms: _374  and  _375
REMARK  148  A    between atoms: _375  and  _376
REMARK  149  A    between atoms: _380  and  _382
REMARK  150  A    between atoms: _382  and  _383
REMARK  151  A    between atoms: _382  and  _385
REMARK  152  A    between atoms: _385  and  _386
REMARK  153  A    between atoms: _389  and  _391
REMARK  154  A    between atoms: _391  and  _392
REMARK  155  A    between atoms: _391  and  _394
REMARK  156  A    between atoms: _394  and  _395
REMARK  157  A    between atoms: _400  and  _402
REMARK  158  A    between atoms: _402  and  _403
REMARK  159  A    between atoms: _405  and  _407
REMARK  160  A    between atoms: _407  and  _408
REMARK  161  A    between atoms: _407  and  _410
REMARK  162  A    between atoms: _410  and  _411
REMARK  163  A    between atoms: _414  and  _416
REMARK  164  A    between atoms: _416  and  _417
REMARK  165  A    between atoms: _416  and  _419
REMARK  166  A    between atoms: _419  and  _420
REMARK  167  A    between atoms: _420  and  _421
REMARK  168  A    between atoms: _421  and  _422
REMARK  169  A    between atoms: _422  and  _423
REMARK  170  A    between atoms: _427  and  _429
REMARK  171  A    between atoms: _429  and  _430
REMARK  172  A    between atoms: _429  and  _432
REMARK  173  A    between atoms: _432  and  _433
REMARK  174  A    between atoms: _433  and  _434
REMARK  175  A    between atoms: _434  and  _435
REMARK  176  A    between atoms: _444  and  _446
REMARK  177  A    between atoms: _446  and  _447
REMARK  178  A    between atoms: _446  and  _449
REMARK  179  A    between atoms: _449  and  _450
REMARK  180  A    between atoms: _455  and  _457
REMARK  181  A    between atoms: _457  and  _458
REMARK  182  A    between atoms: _457  and  _460
REMARK  183  A    between atoms: _460  and  _461
REMARK  184  A    between atoms: _466  and  _467
REMARK  185  A    between atoms: _469  and  _471
REMARK  186  A    between atoms: _471  and  _472
REMARK  187  A    between atoms: _471  and  _474
REMARK  188  A    between atoms: _474  and  _475
REMARK  189  A    between atoms: _475  and  _476
REMARK  190  A    between atoms: _476  and  _477
REMARK  191  A    between atoms: _477  and  _478
REMARK  192  A    between atoms: _482  and  _484
REMARK  193  A    between atoms: _484  and  _485
REMARK  194  A    between atoms: _484  and  _487
REMARK  195  A    between atoms: _487  and  _488
REMARK  196  A    between atoms: _490  and  _492
REMARK  197  A    between atoms: _492  and  _493
REMARK  198  A    between atoms: _492  and  _495
REMARK  199  A    between atoms: _495  and  _496
REMARK  200  A    between atoms: _499  and  _501
REMARK  201  A    between atoms: _501  and  _502
REMARK  202  A    between atoms: _501  and  _504
REMARK  203  A    between atoms: _504  and  _505
REMARK  204  A    between atoms: _505  and  _506
REMARK  205  A    between atoms: _509  and  _511
REMARK  206  A    between atoms: _511  and  _512
REMARK  207  A    between atoms: _515  and  _517
REMARK  208  A    between atoms: _517  and  _518
REMARK  209  A    between atoms: _517  and  _520
REMARK  210  A    between atoms: _520  and  _521
REMARK  211  A    between atoms: _523  and  _525
REMARK  212  A    between atoms: _525  and  _526
REMARK  213  A    between atoms: _528  and  _530
REMARK  214  A    between atoms: _530  and  _531
REMARK  215  A    between atoms: _530  and  _533
REMARK  216  A    between atoms: _533  and  _534
REMARK  217  A    between atoms: _537  and  _539
REMARK  218  A    between atoms: _539  and  _540
REMARK  219  A    between atoms: _542  and  _544
REMARK  220  A    between atoms: _544  and  _545
REMARK  221  A    between atoms: _544  and  _547
REMARK  222  A    between atoms: _547  and  _548
REMARK  223  A    between atoms: _553  and  _555
REMARK  224  A    between atoms: _555  and  _556
REMARK  225  A    between atoms: _555  and  _558
REMARK  226  A    between atoms: _558  and  _559
REMARK  227  A    between atoms: _559  and  _560
REMARK  228  A    between atoms: _567  and  _568
REMARK  229  A    between atoms: _568  and  _584
REMARK  230  A    between atoms: _569  and  _571
REMARK  231  A    between atoms: _571  and  _572
REMARK  232  A    between atoms: _572  and  _573
REMARK  233  A    between atoms: _577  and  _579
REMARK  234  A    between atoms: _579  and  _580
REMARK  235  A    between atoms: _579  and  _587
REMARK  236  A    between atoms: _580  and  _581
REMARK  237  A    between atoms: _581  and  _582
REMARK  238  A    between atoms: _582  and  _583
REMARK  239  A    between atoms: _583  and  _584
REMARK  240  A    between atoms: _589  and  _591
REMARK  241  A    between atoms: _591  and  _592
REMARK  242  A    between atoms: _591  and  _594
REMARK  243  A    between atoms: _594  and  _595
REMARK  244  A    between atoms: _598  and  _600
REMARK  245  A    between atoms: _600  and  _601
REMARK  246  A    between atoms: _603  and  _605
REMARK  247  A    between atoms: _605  and  _606
REMARK  248  A    between atoms: _609  and  _611
REMARK  249  A    between atoms: _611  and  _612
REMARK  250  A    between atoms: _611  and  _614
REMARK  251  A    between atoms: _614  and  _615
REMARK  252  A    between atoms: _618  and  _620
REMARK  253  A    between atoms: _620  and  _621
REMARK  254  A    between atoms: _620  and  _623
REMARK  255  A    between atoms: _623  and  _624
REMARK  256  A    between atoms: _629  and  _630
REMARK                            x       y       z     vdW  Elec       q    Type
REMARK                         _______ _______ _______ _____ _____    ______ ____
ROOT
ATOM      1  O   HOH     1      29.099  27.202  20.580  0.00  0.00    +0.000 OA
ENDROOT
TORSDOF 0
REMARK  Name = ../refined-set-2016/3syr/3syr_pocket.pdb
REMARK  256 active torsions:
REMARK  status: ('A' for Active; 'I' for Inactive)
REMARK    1  A    between atoms: _1  and  _3
REMARK    2  A    between atoms: _3  and  _4
REMARK    3  A    between atoms: _3  and  _6
REMARK    4  A    between atoms: _6  and  _7
REMARK    5  A    between atoms: _12  and  _13
REMARK    6  A    between atoms: _15  and  _17
REMARK    7  A    between atoms: _17  and  _18
REMARK    8  A    between atoms: _17  and  _20
REMARK    9  A    between atoms: _20  and  _21
REMARK   10  A    between atoms: _21  and  _22
REMARK   11  A    between atoms: _25  and  _27
REMARK   12  A    between atoms: _27  and  _28
REMARK   13  A    between atoms: _27  and  _30
REMARK   14  A    between atoms: _30  and  _31
REMARK   15  A    between atoms: _36  and  _37
REMARK   16  A    between atoms: _39  and  _41
REMARK   17  A    between atoms: _41  and  _42
REMARK   18  A    between atoms: _41  and  _44
REMARK   19  A    between atoms: _44  and  _45
REMARK   20  A    between atoms: _50  and  _52
REMARK   21  A    between atoms: _52  and  _53
REMARK   22  A    between atoms: _55  and  _57
REMARK   23  A    between atoms: _57  and  _58
REMARK   24  A    between atoms: _60  and  _62
REMARK   25  A    between atoms: _62  and  _63
REMARK   26  A    between atoms: _62  and  _65
REMARK   27  A    between atoms: _65  and  _66
REMARK   28  A    between atoms: _69  and  _71
REMARK   29  A    between atoms: _71  and  _72
REMARK   30  A    between atoms: _74  and  _76
REMARK   31  A    between atoms: _76  and  _77
REMARK   32  A    between atoms: _76  and  _79
REMARK   33  A    between atoms: _79  and  _80
REMARK   34  A    between atoms: _80  and  _81
REMARK   35  A    between atoms: _81  and  _82
REMARK   36  A    between atoms: _91  and  _93
REMARK   37  A    between atoms: _93  and  _94
REMARK   38  A    between atoms: _93  and  _96
REMARK   39  A    between atoms: _96  and  _97
REMARK   40  A    between atoms: _100  and  _102
REMARK   41  A    between atoms: _102  and  _103
REMARK   42  A    between atoms: _106  and  _108
REMARK   43  A    between atoms: _108  and  _109
REMARK   44  A    between atoms: _108  and  _111
REMARK   45  A    between atoms: _111  and  _112
REMARK   46  A    between atoms: _118  and  _120
REMARK   47  A    between atoms: _120  and  _121
REMARK   48  A    between atoms: _120  and  _123
REMARK   49  A    between atoms: _123  and  _124
REMARK   50  A    between atoms: _129  and  _131
REMARK   51  A    between atoms: _131  and  _132
REMARK   52  A    between atoms: _131  and  _134
REMARK   53  A    between atoms: _134  and  _135
REMARK   54  A    between atoms: _138  and  _140
REMARK   55  A    between atoms: _140  and  _141
REMARK   56  A    between atoms: _140  and  _143
REMARK   57  A    between atoms: _143  and  _144
REMARK   58  A    between atoms: _149  and  _151
REMARK   59  A    between atoms: _151  and  _152
REMARK   60  A    between atoms: _151  and  _154
REMARK   61  A    between atoms: _154  and  _155
REMARK   62  A    between atoms: _161  and  _163
REMARK   63  A    between atoms: _163  and  _164
REMARK   64  A    between atoms: _163  and  _166
REMARK   65  A    between atoms: _166  and  _167
REMARK   66  A    between atoms: _173  and  _175
REMARK   67  A    between atoms: _175  and  _176
REMARK   68  A    between atoms: _175  and  _178
REMARK   69  A    between atoms: _178  and  _179
REMARK   70  A    between atoms: _179  and  _180
REMARK   71  A    between atoms: _180  and  _181
REMARK   72  A    between atoms: _190  and  _192
REMARK   73  A    between atoms: _192  and  _193
REMARK   74  A    between atoms: _192  and  _195
REMARK   75  A    between atoms: _195  and  _196
REMARK   76  A    between atoms: _201  and  _203
REMARK   77  A    between atoms: _203  and  _204
REMARK   78  A    between atoms: _203  and  _206
REMARK   79  A    between atoms: _206  and  _207
REMARK   80  A    between atoms: _210  and  _212
REMARK   81  A    between atoms: _212  and  _213
REMARK   82  A    between atoms: _212  and  _215
REMARK   83  A    between atoms: _215  and  _216
REMARK   84  A    between atoms: _219  and  _221
REMARK   85  A    between atoms: _221  and  _222
REMARK   86  A    between atoms: _221  and  _224
REMARK   87  A    between atoms: _224  and  _225
REMARK   88  A    between atoms: _230  and  _232
REMARK   89  A    between atoms: _232  and  _233
REMARK   90  A    between atoms: _232  and  _235
REMARK   91  A    between atoms: _235  and  _236
REMARK   92  A    between atoms: _241  and  _242
REMARK   93  A    between atoms: _244  and  _246
REMARK   94  A    between atoms: _246  and  _247
REMARK   95  A    between atoms: _246  and  _249
REMARK   96  A    between atoms: _249  and  _250
REMARK   97  A    between atoms: _253  and  _255
REMARK   98  A    between atoms: _255  and  _256
REMARK   99  A    between atoms: _255  and  _258
REMARK  100  A    between atoms: _258  and  _259
REMARK  101  A    between atoms: _264  and  _266
REMARK  102  A    between atoms: _266  and  _267
REMARK  103  A    between atoms: _266  and  _269
REMARK  104  A    between atoms: _269  and  _270
REMARK  105  A    between atoms: _275  and  _277
REMARK  106  A    between atoms: _277  and  _278
REMARK  107  A    between atoms: _277  and  _280
REMARK  108  A    between atoms: _280  and  _281
REMARK  109  A    between atoms: _284  and  _286
REMARK  110  A    between atoms: _286  and  _287
REMARK  111  A    between atoms: _286  and  _289
REMARK  112  A    between atoms: _292  and  _294
REMARK  113  A    between atoms: _294  and  _295
REMARK  114  A    between atoms: _294  and  _297
REMARK  115  A    between atoms: _297  and  _298
REMARK  116  A    between atoms: _301  and  _303
REMARK  117  A    between atoms: _303  and  _304
REMARK  118  A    between atoms: _307  and  _309
REMARK  119  A    between atoms: _309  and  _310
REMARK  120  A    between atoms: _309  and  _312
REMARK  121  A    between atoms: _312  and  _313
REMARK  122  A    between atoms: _316  and  _318
REMARK  123  A    between atoms: _318  and  _319
REMARK  124  A    between atoms: _318  and  _321
REMARK  125  A    between atoms: _321  and  _322
REMARK  126  A    between atoms: _322  and  _323
REMARK  127  A    between atoms: _326  and  _328
REMARK  128  A    between atoms: _328  and  _329
REMARK  129  A    between atoms: _328  and  _331
REMARK  130  A    between atoms: _331  and  _332
REMARK  131  A    between atoms: _337  and  _339
REMARK  132  A    between atoms: _339  and  _340
REMARK  133  A    between atoms: _342  and  _344
REMARK  134  A    between atoms: _344  and  _345
REMARK  135  A    between atoms: _344  and  _347
REMARK  136  A    between atoms: _350  and  _352
REMARK  137  A    between atoms: _352  and  _353
REMARK  138  A    between atoms: _356  and  _358
REMARK  139  A    between atoms: _358  and  _359
REMARK  140  A    between atoms: _358  and  _361
REMARK  141  A    between atoms: _361  and  _362
REMARK  142  A    between atoms: _367  and  _369
REMARK  143  A    between atoms: _369  and  _370
REMARK  144  A    between atoms: _369  and  _372
REMARK  145  A    between atoms: _372  and  _373
REMARK  146  A    between atoms: _373  and  _374
REMARK  147  A    between atoms: _374  and  _375
REMARK  148  A    between atoms: _375  and  _376
REMARK  149  A    between atoms: _380  and  _382
REMARK  150  A    between atoms: _382  and  _383
REMARK  151  A    between atoms: _382  and  _385
REMARK  152  A    between atoms: _385  and  _386
REMARK  153  A    between atoms: _389  and  _391
REMARK  154  A    between atoms: _391  and  _392
REMARK  155  A    between atoms: _391  and  _394
REMARK  156  A    between atoms: _394  and  _395
REMARK  157  A    between atoms: _400  and  _402
REMARK  158  A    between atoms: _402  and  _403
REMARK  159  A    between atoms: _405  and  _407
REMARK  160  A    between atoms: _407  and  _408
REMARK  161  A    between atoms: _407  and  _410
REMARK  162  A    between atoms: _410  and  _411
REMARK  163  A    between atoms: _414  and  _416
REMARK  164  A    between atoms: _416  and  _417
REMARK  165  A    between atoms: _416  and  _419
REMARK  166  A    between atoms: _419  and  _420
REMARK  167  A    between atoms: _420  and  _421
REMARK  168  A    between atoms: _421  and  _422
REMARK  169  A    between atoms: _422  and  _423
REMARK  170  A    between atoms: _427  and  _429
REMARK  171  A    between atoms: _429  and  _430
REMARK  172  A    between atoms: _429  and  _432
REMARK  173  A    between atoms: _432  and  _433
REMARK  174  A    between atoms: _433  and  _434
REMARK  175  A    between atoms: _434  and  _435
REMARK  176  A    between atoms: _444  and  _446
REMARK  177  A    between atoms: _446  and  _447
REMARK  178  A    between atoms: _446  and  _449
REMARK  179  A    between atoms: _449  and  _450
REMARK  180  A    between atoms: _455  and  _457
REMARK  181  A    between atoms: _457  and  _458
REMARK  182  A    between atoms: _457  and  _460
REMARK  183  A    between atoms: _460  and  _461
REMARK  184  A    between atoms: _466  and  _467
REMARK  185  A    between atoms: _469  and  _471
REMARK  186  A    between atoms: _471  and  _472
REMARK  187  A    between atoms: _471  and  _474
REMARK  188  A    between atoms: _474  and  _475
REMARK  189  A    between atoms: _475  and  _476
REMARK  190  A    between atoms: _476  and  _477
REMARK  191  A    between atoms: _477  and  _478
REMARK  192  A    between atoms: _482  and  _484
REMARK  193  A    between atoms: _484  and  _485
REMARK  194  A    between atoms: _484  and  _487
REMARK  195  A    between atoms: _487  and  _488
REMARK  196  A    between atoms: _490  and  _492
REMARK  197  A    between atoms: _492  and  _493
REMARK  198  A    between atoms: _492  and  _495
REMARK  199  A    between atoms: _495  and  _496
REMARK  200  A    between atoms: _499  and  _501
REMARK  201  A    between atoms: _501  and  _502
REMARK  202  A    between atoms: _501  and  _504
REMARK  203  A    between atoms: _504  and  _505
REMARK  204  A    between atoms: _505  and  _506
REMARK  205  A    between atoms: _509  and  _511
REMARK  206  A    between atoms: _511  and  _512
REMARK  207  A    between atoms: _515  and  _517
REMARK  208  A    between atoms: _517  and  _518
REMARK  209  A    between atoms: _517  and  _520
REMARK  210  A    between atoms: _520  and  _521
REMARK  211  A    between atoms: _523  and  _525
REMARK  212  A    between atoms: _525  and  _526
REMARK  213  A    between atoms: _528  and  _530
REMARK  214  A    between atoms: _530  and  _531
REMARK  215  A    between atoms: _530  and  _533
REMARK  216  A    between atoms: _533  and  _534
REMARK  217  A    between atoms: _537  and  _539
REMARK  218  A    between atoms: _539  and  _540
REMARK  219  A    between atoms: _542  and  _544
REMARK  220  A    between atoms: _544  and  _545
REMARK  221  A    between atoms: _544  and  _547
REMARK  222  A    between atoms: _547  and  _548
REMARK  223  A    between atoms: _553  and  _555
REMARK  224  A    between atoms: _555  and  _556
REMARK  225  A    between atoms: _555  and  _558
REMARK  226  A    between atoms: _558  and  _559
REMARK  227  A    between atoms: _559  and  _560
REMARK  228  A    between atoms: _567  and  _568
REMARK  229  A    between atoms: _568  and  _584
REMARK  230  A    between atoms: _569  and  _571
REMARK  231  A    between atoms: _571  and  _572
REMARK  232  A    between atoms: _572  and  _573
REMARK  233  A    between atoms: _577  and  _579
REMARK  234  A    between atoms: _579  and  _580
REMARK  235  A    between atoms: _579  and  _587
REMARK  236  A    between atoms: _580  and  _581
REMARK  237  A    between atoms: _581  and  _582
REMARK  238  A    between atoms: _582  and  _583
REMARK  239  A    between atoms: _583  and  _584
REMARK  240  A    between atoms: _589  and  _591
REMARK  241  A    between atoms: _591  and  _592
REMARK  242  A    between atoms: _591  and  _594
REMARK  243  A    between atoms: _594  and  _595
REMARK  244  A    between atoms: _598  and  _600
REMARK  245  A    between atoms: _600  and  _601
REMARK  246  A    between atoms: _603  and  _605
REMARK  247  A    between atoms: _605  and  _606
REMARK  248  A    between atoms: _609  and  _611
REMARK  249  A    between atoms: _611  and  _612
REMARK  250  A    between atoms: _611  and  _614
REMARK  251  A    between atoms: _614  and  _615
REMARK  252  A    between atoms: _618  and  _620
REMARK  253  A    between atoms: _620  and  _621
REMARK  254  A    between atoms: _620  and  _623
REMARK  255  A    between atoms: _623  and  _624
REMARK  256  A    between atoms: _629  and  _630
REMARK                            x       y       z     vdW  Elec       q    Type
REMARK                         _______ _______ _______ _____ _____    ______ ____
ROOT
ATOM      1  O   HOH     1      34.664  32.790  31.808  0.00  0.00    +0.000 OA
ENDROOT
TORSDOF 0
REMARK  Name = ../refined-set-2016/3syr/3syr_pocket.pdb
REMARK  256 active torsions:
REMARK  status: ('A' for Active; 'I' for Inactive)
REMARK    1  A    between atoms: _1  and  _3
REMARK    2  A    between atoms: _3  and  _4
REMARK    3  A    between atoms: _3  and  _6
REMARK    4  A    between atoms: _6  and  _7
REMARK    5  A    between atoms: _12  and  _13
REMARK    6  A    between atoms: _15  and  _17
REMARK    7  A    between atoms: _17  and  _18
REMARK    8  A    between atoms: _17  and  _20
REMARK    9  A    between atoms: _20  and  _21
REMARK   10  A    between atoms: _21  and  _22
REMARK   11  A    between atoms: _25  and  _27
REMARK   12  A    between atoms: _27  and  _28
REMARK   13  A    between atoms: _27  and  _30
REMARK   14  A    between atoms: _30  and  _31
REMARK   15  A    between atoms: _36  and  _37
REMARK   16  A    between atoms: _39  and  _41
REMARK   17  A    between atoms: _41  and  _42
REMARK   18  A    between atoms: _41  and  _44
REMARK   19  A    between atoms: _44  and  _45
REMARK   20  A    between atoms: _50  and  _52
REMARK   21  A    between atoms: _52  and  _53
REMARK   22  A    between atoms: _55  and  _57
REMARK   23  A    between atoms: _57  and  _58
REMARK   24  A    between atoms: _60  and  _62
REMARK   25  A    between atoms: _62  and  _63
REMARK   26  A    between atoms: _62  and  _65
REMARK   27  A    between atoms: _65  and  _66
REMARK   28  A    between atoms: _69  and  _71
REMARK   29  A    between atoms: _71  and  _72
REMARK   30  A    between atoms: _74  and  _76
REMARK   31  A    between atoms: _76  and  _77
REMARK   32  A    between atoms: _76  and  _79
REMARK   33  A    between atoms: _79  and  _80
REMARK   34  A    between atoms: _80  and  _81
REMARK   35  A    between atoms: _81  and  _82
REMARK   36  A    between atoms: _91  and  _93
REMARK   37  A    between atoms: _93  and  _94
REMARK   38  A    between atoms: _93  and  _96
REMARK   39  A    between atoms: _96  and  _97
REMARK   40  A    between atoms: _100  and  _102
REMARK   41  A    between atoms: _102  and  _103
REMARK   42  A    between atoms: _106  and  _108
REMARK   43  A    between atoms: _108  and  _109
REMARK   44  A    between atoms: _108  and  _111
REMARK   45  A    between atoms: _111  and  _112
REMARK   46  A    between atoms: _118  and  _120
REMARK   47  A    between atoms: _120  and  _121
REMARK   48  A    between atoms: _120  and  _123
REMARK   49  A    between atoms: _123  and  _124
REMARK   50  A    between atoms: _129  and  _131
REMARK   51  A    between atoms: _131  and  _132
REMARK   52  A    between atoms: _131  and  _134
REMARK   53  A    between atoms: _134  and  _135
REMARK   54  A    between atoms: _138  and  _140
REMARK   55  A    between atoms: _140  and  _141
REMARK   56  A    between atoms: _140  and  _143
REMARK   57  A    between atoms: _143  and  _144
REMARK   58  A    between atoms: _149  and  _151
REMARK   59  A    between atoms: _151  and  _152
REMARK   60  A    between atoms: _151  and  _154
REMARK   61  A    between atoms: _154  and  _155
REMARK   62  A    between atoms: _161  and  _163
REMARK   63  A    between atoms: _163  and  _164
REMARK   64  A    between atoms: _163  and  _166
REMARK   65  A    between atoms: _166  and  _167
REMARK   66  A    between atoms: _173  and  _175
REMARK   67  A    between atoms: _175  and  _176
REMARK   68  A    between atoms: _175  and  _178
REMARK   69  A    between atoms: _178  and  _179
REMARK   70  A    between atoms: _179  and  _180
REMARK   71  A    between atoms: _180  and  _181
REMARK   72  A    between atoms: _190  and  _192
REMARK   73  A    between atoms: _192  and  _193
REMARK   74  A    between atoms: _192  and  _195
REMARK   75  A    between atoms: _195  and  _196
REMARK   76  A    between atoms: _201  and  _203
REMARK   77  A    between atoms: _203  and  _204
REMARK   78  A    between atoms: _203  and  _206
REMARK   79  A    between atoms: _206  and  _207
REMARK   80  A    between atoms: _210  and  _212
REMARK   81  A    between atoms: _212  and  _213
REMARK   82  A    between atoms: _212  and  _215
REMARK   83  A    between atoms: _215  and  _216
REMARK   84  A    between atoms: _219  and  _221
REMARK   85  A    between atoms: _221  and  _222
REMARK   86  A    between atoms: _221  and  _224
REMARK   87  A    between atoms: _224  and  _225
REMARK   88  A    between atoms: _230  and  _232
REMARK   89  A    between atoms: _232  and  _233
REMARK   90  A    between atoms: _232  and  _235
REMARK   91  A    between atoms: _235  and  _236
REMARK   92  A    between atoms: _241  and  _242
REMARK   93  A    between atoms: _244  and  _246
REMARK   94  A    between atoms: _246  and  _247
REMARK   95  A    between atoms: _246  and  _249
REMARK   96  A    between atoms: _249  and  _250
REMARK   97  A    between atoms: _253  and  _255
REMARK   98  A    between atoms: _255  and  _256
REMARK   99  A    between atoms: _255  and  _258
REMARK  100  A    between atoms: _258  and  _259
REMARK  101  A    between atoms: _264  and  _266
REMARK  102  A    between atoms: _266  and  _267
REMARK  103  A    between atoms: _266  and  _269
REMARK  104  A    between atoms: _269  and  _270
REMARK  105  A    between atoms: _275  and  _277
REMARK  106  A    between atoms: _277  and  _278
REMARK  107  A    between atoms: _277  and  _280
REMARK  108  A    between atoms: _280  and  _281
REMARK  109  A    between atoms: _284  and  _286
REMARK  110  A    between atoms: _286  and  _287
REMARK  111  A    between atoms: _286  and  _289
REMARK  112  A    between atoms: _292  and  _294
REMARK  113  A    between atoms: _294  and  _295
REMARK  114  A    between atoms: _294  and  _297
REMARK  115  A    between atoms: _297  and  _298
REMARK  116  A    between atoms: _301  and  _303
REMARK  117  A    between atoms: _303  and  _304
REMARK  118  A    between atoms: _307  and  _309
REMARK  119  A    between atoms: _309  and  _310
REMARK  120  A    between atoms: _309  and  _312
REMARK  121  A    between atoms: _312  and  _313
REMARK  122  A    between atoms: _316  and  _318
REMARK  123  A    between atoms: _318  and  _319
REMARK  124  A    between atoms: _318  and  _321
REMARK  125  A    between atoms: _321  and  _322
REMARK  126  A    between atoms: _322  and  _323
REMARK  127  A    between atoms: _326  and  _328
REMARK  128  A    between atoms: _328  and  _329
REMARK  129  A    between atoms: _328  and  _331
REMARK  130  A    between atoms: _331  and  _332
REMARK  131  A    between atoms: _337  and  _339
REMARK  132  A    between atoms: _339  and  _340
REMARK  133  A    between atoms: _342  and  _344
REMARK  134  A    between atoms: _344  and  _345
REMARK  135  A    between atoms: _344  and  _347
REMARK  136  A    between atoms: _350  and  _352
REMARK  137  A    between atoms: _352  and  _353
REMARK  138  A    between atoms: _356  and  _358
REMARK  139  A    between atoms: _358  and  _359
REMARK  140  A    between atoms: _358  and  _361
REMARK  141  A    between atoms: _361  and  _362
REMARK  142  A    between atoms: _367  and  _369
REMARK  143  A    between atoms: _369  and  _370
REMARK  144  A    between atoms: _369  and  _372
REMARK  145  A    between atoms: _372  and  _373
REMARK  146  A    between atoms: _373  and  _374
REMARK  147  A    between atoms: _374  and  _375
REMARK  148  A    between atoms: _375  and  _376
REMARK  149  A    between atoms: _380  and  _382
REMARK  150  A    between atoms: _382  and  _383
REMARK  151  A    between atoms: _382  and  _385
REMARK  152  A    between atoms: _385  and  _386
REMARK  153  A    between atoms: _389  and  _391
REMARK  154  A    between atoms: _391  and  _392
REMARK  155  A    between atoms: _391  and  _394
REMARK  156  A    between atoms: _394  and  _395
REMARK  157  A    between atoms: _400  and  _402
REMARK  158  A    between atoms: _402  and  _403
REMARK  159  A    between atoms: _405  and  _407
REMARK  160  A    between atoms: _407  and  _408
REMARK  161  A    between atoms: _407  and  _410
REMARK  162  A    between atoms: _410  and  _411
REMARK  163  A    between atoms: _414  and  _416
REMARK  164  A    between atoms: _416  and  _417
REMARK  165  A    between atoms: _416  and  _419
REMARK  166  A    between atoms: _419  and  _420
REMARK  167  A    between atoms: _420  and  _421
REMARK  168  A    between atoms: _421  and  _422
REMARK  169  A    between atoms: _422  and  _423
REMARK  170  A    between atoms: _427  and  _429
REMARK  171  A    between atoms: _429  and  _430
REMARK  172  A    between atoms: _429  and  _432
REMARK  173  A    between atoms: _432  and  _433
REMARK  174  A    between atoms: _433  and  _434
REMARK  175  A    between atoms: _434  and  _435
REMARK  176  A    between atoms: _444  and  _446
REMARK  177  A    between atoms: _446  and  _447
REMARK  178  A    between atoms: _446  and  _449
REMARK  179  A    between atoms: _449  and  _450
REMARK  180  A    between atoms: _455  and  _457
REMARK  181  A    between atoms: _457  and  _458
REMARK  182  A    between atoms: _457  and  _460
REMARK  183  A    between atoms: _460  and  _461
REMARK  184  A    between atoms: _466  and  _467
REMARK  185  A    between atoms: _469  and  _471
REMARK  186  A    between atoms: _471  and  _472
REMARK  187  A    between atoms: _471  and  _474
REMARK  188  A    between atoms: _474  and  _475
REMARK  189  A    between atoms: _475  and  _476
REMARK  190  A    between atoms: _476  and  _477
REMARK  191  A    between atoms: _477  and  _478
REMARK  192  A    between atoms: _482  and  _484
REMARK  193  A    between atoms: _484  and  _485
REMARK  194  A    between atoms: _484  and  _487
REMARK  195  A    between atoms: _487  and  _488
REMARK  196  A    between atoms: _490  and  _492
REMARK  197  A    between atoms: _492  and  _493
REMARK  198  A    between atoms: _492  and  _495
REMARK  199  A    between atoms: _495  and  _496
REMARK  200  A    between atoms: _499  and  _501
REMARK  201  A    between atoms: _501  and  _502
REMARK  202  A    between atoms: _501  and  _504
REMARK  203  A    between atoms: _504  and  _505
REMARK  204  A    between atoms: _505  and  _506
REMARK  205  A    between atoms: _509  and  _511
REMARK  206  A    between atoms: _511  and  _512
REMARK  207  A    between atoms: _515  and  _517
REMARK  208  A    between atoms: _517  and  _518
REMARK  209  A    between atoms: _517  and  _520
REMARK  210  A    between atoms: _520  and  _521
REMARK  211  A    between atoms: _523  and  _525
REMARK  212  A    between atoms: _525  and  _526
REMARK  213  A    between atoms: _528  and  _530
REMARK  214  A    between atoms: _530  and  _531
REMARK  215  A    between atoms: _530  and  _533
REMARK  216  A    between atoms: _533  and  _534
REMARK  217  A    between atoms: _537  and  _539
REMARK  218  A    between atoms: _539  and  _540
REMARK  219  A    between atoms: _542  and  _544
REMARK  220  A    between atoms: _544  and  _545
REMARK  221  A    between atoms: _544  and  _547
REMARK  222  A    between atoms: _547  and  _548
REMARK  223  A    between atoms: _553  and  _555
REMARK  224  A    between atoms: _555  and  _556
REMARK  225  A    between atoms: _555  and  _558
REMARK  226  A    between atoms: _558  and  _559
REMARK  227  A    between atoms: _559  and  _560
REMARK  228  A    between atoms: _567  and  _568
REMARK  229  A    between atoms: _568  and  _584
REMARK  230  A    between atoms: _569  and  _571
REMARK  231  A    between atoms: _571  and  _572
REMARK  232  A    between atoms: _572  and  _573
REMARK  233  A    between atoms: _577  and  _579
REMARK  234  A    between atoms: _579  and  _580
REMARK  235  A    between atoms: _579  and  _587
REMARK  236  A    between atoms: _580  and  _581
REMARK  237  A    between atoms: _581  and  _582
REMARK  238  A    between atoms: _582  and  _583
REMARK  239  A    between atoms: _583  and  _584
REMARK  240  A    between atoms: _589  and  _591
REMARK  241  A    between atoms: _591  and  _592
REMARK  242  A    between atoms: _591  and  _594
REMARK  243  A    between atoms: _594  and  _595
REMARK  244  A    between atoms: _598  and  _600
REMARK  245  A    between atoms: _600  and  _601
REMARK  246  A    between atoms: _603  and  _605
REMARK  247  A    between atoms: _605  and  _606
REMARK  248  A    between atoms: _609  and  _611
REMARK  249  A    between atoms: _611  and  _612
REMARK  250  A    between atoms: _611  and  _614
REMARK  251  A    between atoms: _614  and  _615
REMARK  252  A    between atoms: _618  and  _620
REMARK  253  A    between atoms: _620  and  _621
REMARK  254  A    between atoms: _620  and  _623
REMARK  255  A    between atoms: _623  and  _624
REMARK  256  A    between atoms: _629  and  _630
REMARK                            x       y       z     vdW  Elec       q    Type
REMARK                         _______ _______ _______ _____ _____    ______ ____
ROOT
ATOM      1  O   HOH     1      26.065  16.560  28.637  0.00  0.00    +0.000 OA
ENDROOT
TORSDOF 0
REMARK  Name = ../refined-set-2016/3syr/3syr_pocket.pdb
REMARK  256 active torsions:
REMARK  status: ('A' for Active; 'I' for Inactive)
REMARK    1  A    between atoms: _1  and  _3
REMARK    2  A    between atoms: _3  and  _4
REMARK    3  A    between atoms: _3  and  _6
REMARK    4  A    between atoms: _6  and  _7
REMARK    5  A    between atoms: _12  and  _13
REMARK    6  A    between atoms: _15  and  _17
REMARK    7  A    between atoms: _17  and  _18
REMARK    8  A    between atoms: _17  and  _20
REMARK    9  A    between atoms: _20  and  _21
REMARK   10  A    between atoms: _21  and  _22
REMARK   11  A    between atoms: _25  and  _27
REMARK   12  A    between atoms: _27  and  _28
REMARK   13  A    between atoms: _27  and  _30
REMARK   14  A    between atoms: _30  and  _31
REMARK   15  A    between atoms: _36  and  _37
REMARK   16  A    between atoms: _39  and  _41
REMARK   17  A    between atoms: _41  and  _42
REMARK   18  A    between atoms: _41  and  _44
REMARK   19  A    between atoms: _44  and  _45
REMARK   20  A    between atoms: _50  and  _52
REMARK   21  A    between atoms: _52  and  _53
REMARK   22  A    between atoms: _55  and  _57
REMARK   23  A    between atoms: _57  and  _58
REMARK   24  A    between atoms: _60  and  _62
REMARK   25  A    between atoms: _62  and  _63
REMARK   26  A    between atoms: _62  and  _65
REMARK   27  A    between atoms: _65  and  _66
REMARK   28  A    between atoms: _69  and  _71
REMARK   29  A    between atoms: _71  and  _72
REMARK   30  A    between atoms: _74  and  _76
REMARK   31  A    between atoms: _76  and  _77
REMARK   32  A    between atoms: _76  and  _79
REMARK   33  A    between atoms: _79  and  _80
REMARK   34  A    between atoms: _80  and  _81
REMARK   35  A    between atoms: _81  and  _82
REMARK   36  A    between atoms: _91  and  _93
REMARK   37  A    between atoms: _93  and  _94
REMARK   38  A    between atoms: _93  and  _96
REMARK   39  A    between atoms: _96  and  _97
REMARK   40  A    between atoms: _100  and  _102
REMARK   41  A    between atoms: _102  and  _103
REMARK   42  A    between atoms: _106  and  _108
REMARK   43  A    between atoms: _108  and  _109
REMARK   44  A    between atoms: _108  and  _111
REMARK   45  A    between atoms: _111  and  _112
REMARK   46  A    between atoms: _118  and  _120
REMARK   47  A    between atoms: _120  and  _121
REMARK   48  A    between atoms: _120  and  _123
REMARK   49  A    between atoms: _123  and  _124
REMARK   50  A    between atoms: _129  and  _131
REMARK   51  A    between atoms: _131  and  _132
REMARK   52  A    between atoms: _131  and  _134
REMARK   53  A    between atoms: _134  and  _135
REMARK   54  A    between atoms: _138  and  _140
REMARK   55  A    between atoms: _140  and  _141
REMARK   56  A    between atoms: _140  and  _143
REMARK   57  A    between atoms: _143  and  _144
REMARK   58  A    between atoms: _149  and  _151
REMARK   59  A    between atoms: _151  and  _152
REMARK   60  A    between atoms: _151  and  _154
REMARK   61  A    between atoms: _154  and  _155
REMARK   62  A    between atoms: _161  and  _163
REMARK   63  A    between atoms: _163  and  _164
REMARK   64  A    between atoms: _163  and  _166
REMARK   65  A    between atoms: _166  and  _167
REMARK   66  A    between atoms: _173  and  _175
REMARK   67  A    between atoms: _175  and  _176
REMARK   68  A    between atoms: _175  and  _178
REMARK   69  A    between atoms: _178  and  _179
REMARK   70  A    between atoms: _179  and  _180
REMARK   71  A    between atoms: _180  and  _181
REMARK   72  A    between atoms: _190  and  _192
REMARK   73  A    between atoms: _192  and  _193
REMARK   74  A    between atoms: _192  and  _195
REMARK   75  A    between atoms: _195  and  _196
REMARK   76  A    between atoms: _201  and  _203
REMARK   77  A    between atoms: _203  and  _204
REMARK   78  A    between atoms: _203  and  _206
REMARK   79  A    between atoms: _206  and  _207
REMARK   80  A    between atoms: _210  and  _212
REMARK   81  A    between atoms: _212  and  _213
REMARK   82  A    between atoms: _212  and  _215
REMARK   83  A    between atoms: _215  and  _216
REMARK   84  A    between atoms: _219  and  _221
REMARK   85  A    between atoms: _221  and  _222
REMARK   86  A    between atoms: _221  and  _224
REMARK   87  A    between atoms: _224  and  _225
REMARK   88  A    between atoms: _230  and  _232
REMARK   89  A    between atoms: _232  and  _233
REMARK   90  A    between atoms: _232  and  _235
REMARK   91  A    between atoms: _235  and  _236
REMARK   92  A    between atoms: _241  and  _242
REMARK   93  A    between atoms: _244  and  _246
REMARK   94  A    between atoms: _246  and  _247
REMARK   95  A    between atoms: _246  and  _249
REMARK   96  A    between atoms: _249  and  _250
REMARK   97  A    between atoms: _253  and  _255
REMARK   98  A    between atoms: _255  and  _256
REMARK   99  A    between atoms: _255  and  _258
REMARK  100  A    between atoms: _258  and  _259
REMARK  101  A    between atoms: _264  and  _266
REMARK  102  A    between atoms: _266  and  _267
REMARK  103  A    between atoms: _266  and  _269
REMARK  104  A    between atoms: _269  and  _270
REMARK  105  A    between atoms: _275  and  _277
REMARK  106  A    between atoms: _277  and  _278
REMARK  107  A    between atoms: _277  and  _280
REMARK  108  A    between atoms: _280  and  _281
REMARK  109  A    between atoms: _284  and  _286
REMARK  110  A    between atoms: _286  and  _287
REMARK  111  A    between atoms: _286  and  _289
REMARK  112  A    between atoms: _292  and  _294
REMARK  113  A    between atoms: _294  and  _295
REMARK  114  A    between atoms: _294  and  _297
REMARK  115  A    between atoms: _297  and  _298
REMARK  116  A    between atoms: _301  and  _303
REMARK  117  A    between atoms: _303  and  _304
REMARK  118  A    between atoms: _307  and  _309
REMARK  119  A    between atoms: _309  and  _310
REMARK  120  A    between atoms: _309  and  _312
REMARK  121  A    between atoms: _312  and  _313
REMARK  122  A    between atoms: _316  and  _318
REMARK  123  A    between atoms: _318  and  _319
REMARK  124  A    between atoms: _318  and  _321
REMARK  125  A    between atoms: _321  and  _322
REMARK  126  A    between atoms: _322  and  _323
REMARK  127  A    between atoms: _326  and  _328
REMARK  128  A    between atoms: _328  and  _329
REMARK  129  A    between atoms: _328  and  _331
REMARK  130  A    between atoms: _331  and  _332
REMARK  131  A    between atoms: _337  and  _339
REMARK  132  A    between atoms: _339  and  _340
REMARK  133  A    between atoms: _342  and  _344
REMARK  134  A    between atoms: _344  and  _345
REMARK  135  A    between atoms: _344  and  _347
REMARK  136  A    between atoms: _350  and  _352
REMARK  137  A    between atoms: _352  and  _353
REMARK  138  A    between atoms: _356  and  _358
REMARK  139  A    between atoms: _358  and  _359
REMARK  140  A    between atoms: _358  and  _361
REMARK  141  A    between atoms: _361  and  _362
REMARK  142  A    between atoms: _367  and  _369
REMARK  143  A    between atoms: _369  and  _370
REMARK  144  A    between atoms: _369  and  _372
REMARK  145  A    between atoms: _372  and  _373
REMARK  146  A    between atoms: _373  and  _374
REMARK  147  A    between atoms: _374  and  _375
REMARK  148  A    between atoms: _375  and  _376
REMARK  149  A    between atoms: _380  and  _382
REMARK  150  A    between atoms: _382  and  _383
REMARK  151  A    between atoms: _382  and  _385
REMARK  152  A    between atoms: _385  and  _386
REMARK  153  A    between atoms: _389  and  _391
REMARK  154  A    between atoms: _391  and  _392
REMARK  155  A    between atoms: _391  and  _394
REMARK  156  A    between atoms: _394  and  _395
REMARK  157  A    between atoms: _400  and  _402
REMARK  158  A    between atoms: _402  and  _403
REMARK  159  A    between atoms: _405  and  _407
REMARK  160  A    between atoms: _407  and  _408
REMARK  161  A    between atoms: _407  and  _410
REMARK  162  A    between atoms: _410  and  _411
REMARK  163  A    between atoms: _414  and  _416
REMARK  164  A    between atoms: _416  and  _417
REMARK  165  A    between atoms: _416  and  _419
REMARK  166  A    between atoms: _419  and  _420
REMARK  167  A    between atoms: _420  and  _421
REMARK  168  A    between atoms: _421  and  _422
REMARK  169  A    between atoms: _422  and  _423
REMARK  170  A    between atoms: _427  and  _429
REMARK  171  A    between atoms: _429  and  _430
REMARK  172  A    between atoms: _429  and  _432
REMARK  173  A    between atoms: _432  and  _433
REMARK  174  A    between atoms: _433  and  _434
REMARK  175  A    between atoms: _434  and  _435
REMARK  176  A    between atoms: _444  and  _446
REMARK  177  A    between atoms: _446  and  _447
REMARK  178  A    between atoms: _446  and  _449
REMARK  179  A    between atoms: _449  and  _450
REMARK  180  A    between atoms: _455  and  _457
REMARK  181  A    between atoms: _457  and  _458
REMARK  182  A    between atoms: _457  and  _460
REMARK  183  A    between atoms: _460  and  _461
REMARK  184  A    between atoms: _466  and  _467
REMARK  185  A    between atoms: _469  and  _471
REMARK  186  A    between atoms: _471  and  _472
REMARK  187  A    between atoms: _471  and  _474
REMARK  188  A    between atoms: _474  and  _475
REMARK  189  A    between atoms: _475  and  _476
REMARK  190  A    between atoms: _476  and  _477
REMARK  191  A    between atoms: _477  and  _478
REMARK  192  A    between atoms: _482  and  _484
REMARK  193  A    between atoms: _484  and  _485
REMARK  194  A    between atoms: _484  and  _487
REMARK  195  A    between atoms: _487  and  _488
REMARK  196  A    between atoms: _490  and  _492
REMARK  197  A    between atoms: _492  and  _493
REMARK  198  A    between atoms: _492  and  _495
REMARK  199  A    between atoms: _495  and  _496
REMARK  200  A    between atoms: _499  and  _501
REMARK  201  A    between atoms: _501  and  _502
REMARK  202  A    between atoms: _501  and  _504
REMARK  203  A    between atoms: _504  and  _505
REMARK  204  A    between atoms: _505  and  _506
REMARK  205  A    between atoms: _509  and  _511
REMARK  206  A    between atoms: _511  and  _512
REMARK  207  A    between atoms: _515  and  _517
REMARK  208  A    between atoms: _517  and  _518
REMARK  209  A    between atoms: _517  and  _520
REMARK  210  A    between atoms: _520  and  _521
REMARK  211  A    between atoms: _523  and  _525
REMARK  212  A    between atoms: _525  and  _526
REMARK  213  A    between atoms: _528  and  _530
REMARK  214  A    between atoms: _530  and  _531
REMARK  215  A    between atoms: _530  and  _533
REMARK  216  A    between atoms: _533  and  _534
REMARK  217  A    between atoms: _537  and  _539
REMARK  218  A    between atoms: _539  and  _540
REMARK  219  A    between atoms: _542  and  _544
REMARK  220  A    between atoms: _544  and  _545
REMARK  221  A    between atoms: _544  and  _547
REMARK  222  A    between atoms: _547  and  _548
REMARK  223  A    between atoms: _553  and  _555
REMARK  224  A    between atoms: _555  and  _556
REMARK  225  A    between atoms: _555  and  _558
REMARK  226  A    between atoms: _558  and  _559
REMARK  227  A    between atoms: _559  and  _560
REMARK  228  A    between atoms: _567  and  _568
REMARK  229  A    between atoms: _568  and  _584
REMARK  230  A    between atoms: _569  and  _571
REMARK  231  A    between atoms: _571  and  _572
REMARK  232  A    between atoms: _572  and  _573
REMARK  233  A    between atoms: _577  and  _579
REMARK  234  A    between atoms: _579  and  _580
REMARK  235  A    between atoms: _579  and  _587
REMARK  236  A    between atoms: _580  and  _581
REMARK  237  A    between atoms: _581  and  _582
REMARK  238  A    between atoms: _582  and  _583
REMARK  239  A    between atoms: _583  and  _584
REMARK  240  A    between atoms: _589  and  _591
REMARK  241  A    between atoms: _591  and  _592
REMARK  242  A    between atoms: _591  and  _594
REMARK  243  A    between atoms: _594  and  _595
REMARK  244  A    between atoms: _598  and  _600
REMARK  245  A    between atoms: _600  and  _601
REMARK  246  A    between atoms: _603  and  _605
REMARK  247  A    between atoms: _605  and  _606
REMARK  248  A    between atoms: _609  and  _611
REMARK  249  A    between atoms: _611  and  _612
REMARK  250  A    between atoms: _611  and  _614
REMARK  251  A    between atoms: _614  and  _615
REMARK  252  A    between atoms: _618  and  _620
REMARK  253  A    between atoms: _620  and  _621
REMARK  254  A    between atoms: _620  and  _623
REMARK  255  A    between atoms: _623  and  _624
REMARK  256  A    between atoms: _629  and  _630
REMARK                            x       y       z     vdW  Elec       q    Type
REMARK                         _______ _______ _______ _____ _____    ______ ____
ROOT
ATOM      1  O   HOH     1      44.128  22.743  32.102  0.00  0.00    +0.000 OA
ENDROOT
TORSDOF 0
REMARK  Name = ../refined-set-2016/3syr/3syr_pocket.pdb
REMARK  256 active torsions:
REMARK  status: ('A' for Active; 'I' for Inactive)
REMARK    1  A    between atoms: _1  and  _3
REMARK    2  A    between atoms: _3  and  _4
REMARK    3  A    between atoms: _3  and  _6
REMARK    4  A    between atoms: _6  and  _7
REMARK    5  A    between atoms: _12  and  _13
REMARK    6  A    between atoms: _15  and  _17
REMARK    7  A    between atoms: _17  and  _18
REMARK    8  A    between atoms: _17  and  _20
REMARK    9  A    between atoms: _20  and  _21
REMARK   10  A    between atoms: _21  and  _22
REMARK   11  A    between atoms: _25  and  _27
REMARK   12  A    between atoms: _27  and  _28
REMARK   13  A    between atoms: _27  and  _30
REMARK   14  A    between atoms: _30  and  _31
REMARK   15  A    between atoms: _36  and  _37
REMARK   16  A    between atoms: _39  and  _41
REMARK   17  A    between atoms: _41  and  _42
REMARK   18  A    between atoms: _41  and  _44
REMARK   19  A    between atoms: _44  and  _45
REMARK   20  A    between atoms: _50  and  _52
REMARK   21  A    between atoms: _52  and  _53
REMARK   22  A    between atoms: _55  and  _57
REMARK   23  A    between atoms: _57  and  _58
REMARK   24  A    between atoms: _60  and  _62
REMARK   25  A    between atoms: _62  and  _63
REMARK   26  A    between atoms: _62  and  _65
REMARK   27  A    between atoms: _65  and  _66
REMARK   28  A    between atoms: _69  and  _71
REMARK   29  A    between atoms: _71  and  _72
REMARK   30  A    between atoms: _74  and  _76
REMARK   31  A    between atoms: _76  and  _77
REMARK   32  A    between atoms: _76  and  _79
REMARK   33  A    between atoms: _79  and  _80
REMARK   34  A    between atoms: _80  and  _81
REMARK   35  A    between atoms: _81  and  _82
REMARK   36  A    between atoms: _91  and  _93
REMARK   37  A    between atoms: _93  and  _94
REMARK   38  A    between atoms: _93  and  _96
REMARK   39  A    between atoms: _96  and  _97
REMARK   40  A    between atoms: _100  and  _102
REMARK   41  A    between atoms: _102  and  _103
REMARK   42  A    between atoms: _106  and  _108
REMARK   43  A    between atoms: _108  and  _109
REMARK   44  A    between atoms: _108  and  _111
REMARK   45  A    between atoms: _111  and  _112
REMARK   46  A    between atoms: _118  and  _120
REMARK   47  A    between atoms: _120  and  _121
REMARK   48  A    between atoms: _120  and  _123
REMARK   49  A    between atoms: _123  and  _124
REMARK   50  A    between atoms: _129  and  _131
REMARK   51  A    between atoms: _131  and  _132
REMARK   52  A    between atoms: _131  and  _134
REMARK   53  A    between atoms: _134  and  _135
REMARK   54  A    between atoms: _138  and  _140
REMARK   55  A    between atoms: _140  and  _141
REMARK   56  A    between atoms: _140  and  _143
REMARK   57  A    between atoms: _143  and  _144
REMARK   58  A    between atoms: _149  and  _151
REMARK   59  A    between atoms: _151  and  _152
REMARK   60  A    between atoms: _151  and  _154
REMARK   61  A    between atoms: _154  and  _155
REMARK   62  A    between atoms: _161  and  _163
REMARK   63  A    between atoms: _163  and  _164
REMARK   64  A    between atoms: _163  and  _166
REMARK   65  A    between atoms: _166  and  _167
REMARK   66  A    between atoms: _173  and  _175
REMARK   67  A    between atoms: _175  and  _176
REMARK   68  A    between atoms: _175  and  _178
REMARK   69  A    between atoms: _178  and  _179
REMARK   70  A    between atoms: _179  and  _180
REMARK   71  A    between atoms: _180  and  _181
REMARK   72  A    between atoms: _190  and  _192
REMARK   73  A    between atoms: _192  and  _193
REMARK   74  A    between atoms: _192  and  _195
REMARK   75  A    between atoms: _195  and  _196
REMARK   76  A    between atoms: _201  and  _203
REMARK   77  A    between atoms: _203  and  _204
REMARK   78  A    between atoms: _203  and  _206
REMARK   79  A    between atoms: _206  and  _207
REMARK   80  A    between atoms: _210  and  _212
REMARK   81  A    between atoms: _212  and  _213
REMARK   82  A    between atoms: _212  and  _215
REMARK   83  A    between atoms: _215  and  _216
REMARK   84  A    between atoms: _219  and  _221
REMARK   85  A    between atoms: _221  and  _222
REMARK   86  A    between atoms: _221  and  _224
REMARK   87  A    between atoms: _224  and  _225
REMARK   88  A    between atoms: _230  and  _232
REMARK   89  A    between atoms: _232  and  _233
REMARK   90  A    between atoms: _232  and  _235
REMARK   91  A    between atoms: _235  and  _236
REMARK   92  A    between atoms: _241  and  _242
REMARK   93  A    between atoms: _244  and  _246
REMARK   94  A    between atoms: _246  and  _247
REMARK   95  A    between atoms: _246  and  _249
REMARK   96  A    between atoms: _249  and  _250
REMARK   97  A    between atoms: _253  and  _255
REMARK   98  A    between atoms: _255  and  _256
REMARK   99  A    between atoms: _255  and  _258
REMARK  100  A    between atoms: _258  and  _259
REMARK  101  A    between atoms: _264  and  _266
REMARK  102  A    between atoms: _266  and  _267
REMARK  103  A    between atoms: _266  and  _269
REMARK  104  A    between atoms: _269  and  _270
REMARK  105  A    between atoms: _275  and  _277
REMARK  106  A    between atoms: _277  and  _278
REMARK  107  A    between atoms: _277  and  _280
REMARK  108  A    between atoms: _280  and  _281
REMARK  109  A    between atoms: _284  and  _286
REMARK  110  A    between atoms: _286  and  _287
REMARK  111  A    between atoms: _286  and  _289
REMARK  112  A    between atoms: _292  and  _294
REMARK  113  A    between atoms: _294  and  _295
REMARK  114  A    between atoms: _294  and  _297
REMARK  115  A    between atoms: _297  and  _298
REMARK  116  A    between atoms: _301  and  _303
REMARK  117  A    between atoms: _303  and  _304
REMARK  118  A    between atoms: _307  and  _309
REMARK  119  A    between atoms: _309  and  _310
REMARK  120  A    between atoms: _309  and  _312
REMARK  121  A    between atoms: _312  and  _313
REMARK  122  A    between atoms: _316  and  _318
REMARK  123  A    between atoms: _318  and  _319
REMARK  124  A    between atoms: _318  and  _321
REMARK  125  A    between atoms: _321  and  _322
REMARK  126  A    between atoms: _322  and  _323
REMARK  127  A    between atoms: _326  and  _328
REMARK  128  A    between atoms: _328  and  _329
REMARK  129  A    between atoms: _328  and  _331
REMARK  130  A    between atoms: _331  and  _332
REMARK  131  A    between atoms: _337  and  _339
REMARK  132  A    between atoms: _339  and  _340
REMARK  133  A    between atoms: _342  and  _344
REMARK  134  A    between atoms: _344  and  _345
REMARK  135  A    between atoms: _344  and  _347
REMARK  136  A    between atoms: _350  and  _352
REMARK  137  A    between atoms: _352  and  _353
REMARK  138  A    between atoms: _356  and  _358
REMARK  139  A    between atoms: _358  and  _359
REMARK  140  A    between atoms: _358  and  _361
REMARK  141  A    between atoms: _361  and  _362
REMARK  142  A    between atoms: _367  and  _369
REMARK  143  A    between atoms: _369  and  _370
REMARK  144  A    between atoms: _369  and  _372
REMARK  145  A    between atoms: _372  and  _373
REMARK  146  A    between atoms: _373  and  _374
REMARK  147  A    between atoms: _374  and  _375
REMARK  148  A    between atoms: _375  and  _376
REMARK  149  A    between atoms: _380  and  _382
REMARK  150  A    between atoms: _382  and  _383
REMARK  151  A    between atoms: _382  and  _385
REMARK  152  A    between atoms: _385  and  _386
REMARK  153  A    between atoms: _389  and  _391
REMARK  154  A    between atoms: _391  and  _392
REMARK  155  A    between atoms: _391  and  _394
REMARK  156  A    between atoms: _394  and  _395
REMARK  157  A    between atoms: _400  and  _402
REMARK  158  A    between atoms: _402  and  _403
REMARK  159  A    between atoms: _405  and  _407
REMARK  160  A    between atoms: _407  and  _408
REMARK  161  A    between atoms: _407  and  _410
REMARK  162  A    between atoms: _410  and  _411
REMARK  163  A    between atoms: _414  and  _416
REMARK  164  A    between atoms: _416  and  _417
REMARK  165  A    between atoms: _416  and  _419
REMARK  166  A    between atoms: _419  and  _420
REMARK  167  A    between atoms: _420  and  _421
REMARK  168  A    between atoms: _421  and  _422
REMARK  169  A    between atoms: _422  and  _423
REMARK  170  A    between atoms: _427  and  _429
REMARK  171  A    between atoms: _429  and  _430
REMARK  172  A    between atoms: _429  and  _432
REMARK  173  A    between atoms: _432  and  _433
REMARK  174  A    between atoms: _433  and  _434
REMARK  175  A    between atoms: _434  and  _435
REMARK  176  A    between atoms: _444  and  _446
REMARK  177  A    between atoms: _446  and  _447
REMARK  178  A    between atoms: _446  and  _449
REMARK  179  A    between atoms: _449  and  _450
REMARK  180  A    between atoms: _455  and  _457
REMARK  181  A    between atoms: _457  and  _458
REMARK  182  A    between atoms: _457  and  _460
REMARK  183  A    between atoms: _460  and  _461
REMARK  184  A    between atoms: _466  and  _467
REMARK  185  A    between atoms: _469  and  _471
REMARK  186  A    between atoms: _471  and  _472
REMARK  187  A    between atoms: _471  and  _474
REMARK  188  A    between atoms: _474  and  _475
REMARK  189  A    between atoms: _475  and  _476
REMARK  190  A    between atoms: _476  and  _477
REMARK  191  A    between atoms: _477  and  _478
REMARK  192  A    between atoms: _482  and  _484
REMARK  193  A    between atoms: _484  and  _485
REMARK  194  A    between atoms: _484  and  _487
REMARK  195  A    between atoms: _487  and  _488
REMARK  196  A    between atoms: _490  and  _492
REMARK  197  A    between atoms: _492  and  _493
REMARK  198  A    between atoms: _492  and  _495
REMARK  199  A    between atoms: _495  and  _496
REMARK  200  A    between atoms: _499  and  _501
REMARK  201  A    between atoms: _501  and  _502
REMARK  202  A    between atoms: _501  and  _504
REMARK  203  A    between atoms: _504  and  _505
REMARK  204  A    between atoms: _505  and  _506
REMARK  205  A    between atoms: _509  and  _511
REMARK  206  A    between atoms: _511  and  _512
REMARK  207  A    between atoms: _515  and  _517
REMARK  208  A    between atoms: _517  and  _518
REMARK  209  A    between atoms: _517  and  _520
REMARK  210  A    between atoms: _520  and  _521
REMARK  211  A    between atoms: _523  and  _525
REMARK  212  A    between atoms: _525  and  _526
REMARK  213  A    between atoms: _528  and  _530
REMARK  214  A    between atoms: _530  and  _531
REMARK  215  A    between atoms: _530  and  _533
REMARK  216  A    between atoms: _533  and  _534
REMARK  217  A    between atoms: _537  and  _539
REMARK  218  A    between atoms: _539  and  _540
REMARK  219  A    between atoms: _542  and  _544
REMARK  220  A    between atoms: _544  and  _545
REMARK  221  A    between atoms: _544  and  _547
REMARK  222  A    between atoms: _547  and  _548
REMARK  223  A    between atoms: _553  and  _555
REMARK  224  A    between atoms: _555  and  _556
REMARK  225  A    between atoms: _555  and  _558
REMARK  226  A    between atoms: _558  and  _559
REMARK  227  A    between atoms: _559  and  _560
REMARK  228  A    between atoms: _567  and  _568
REMARK  229  A    between atoms: _568  and  _584
REMARK  230  A    between atoms: _569  and  _571
REMARK  231  A    between atoms: _571  and  _572
REMARK  232  A    between atoms: _572  and  _573
REMARK  233  A    between atoms: _577  and  _579
REMARK  234  A    between atoms: _579  and  _580
REMARK  235  A    between atoms: _579  and  _587
REMARK  236  A    between atoms: _580  and  _581
REMARK  237  A    between atoms: _581  and  _582
REMARK  238  A    between atoms: _582  and  _583
REMARK  239  A    between atoms: _583  and  _584
REMARK  240  A    between atoms: _589  and  _591
REMARK  241  A    between atoms: _591  and  _592
REMARK  242  A    between atoms: _591  and  _594
REMARK  243  A    between atoms: _594  and  _595
REMARK  244  A    between atoms: _598  and  _600
REMARK  245  A    between atoms: _600  and  _601
REMARK  246  A    between atoms: _603  and  _605
REMARK  247  A    between atoms: _605  and  _606
REMARK  248  A    between atoms: _609  and  _611
REMARK  249  A    between atoms: _611  and  _612
REMARK  250  A    between atoms: _611  and  _614
REMARK  251  A    between atoms: _614  and  _615
REMARK  252  A    between atoms: _618  and  _620
REMARK  253  A    between atoms: _620  and  _621
REMARK  254  A    between atoms: _620  and  _623
REMARK  255  A    between atoms: _623  and  _624
REMARK  256  A    between atoms: _629  and  _630
REMARK                            x       y       z     vdW  Elec       q    Type
REMARK                         _______ _______ _______ _____ _____    ______ ____
ROOT
ATOM      1  O   HOH     1      28.215  27.376  27.580  0.00  0.00    +0.000 OA
ENDROOT
TORSDOF 0
REMARK  Name = ../refined-set-2016/3syr/3syr_pocket.pdb
REMARK  256 active torsions:
REMARK  status: ('A' for Active; 'I' for Inactive)
REMARK    1  A    between atoms: _1  and  _3
REMARK    2  A    between atoms: _3  and  _4
REMARK    3  A    between atoms: _3  and  _6
REMARK    4  A    between atoms: _6  and  _7
REMARK    5  A    between atoms: _12  and  _13
REMARK    6  A    between atoms: _15  and  _17
REMARK    7  A    between atoms: _17  and  _18
REMARK    8  A    between atoms: _17  and  _20
REMARK    9  A    between atoms: _20  and  _21
REMARK   10  A    between atoms: _21  and  _22
REMARK   11  A    between atoms: _25  and  _27
REMARK   12  A    between atoms: _27  and  _28
REMARK   13  A    between atoms: _27  and  _30
REMARK   14  A    between atoms: _30  and  _31
REMARK   15  A    between atoms: _36  and  _37
REMARK   16  A    between atoms: _39  and  _41
REMARK   17  A    between atoms: _41  and  _42
REMARK   18  A    between atoms: _41  and  _44
REMARK   19  A    between atoms: _44  and  _45
REMARK   20  A    between atoms: _50  and  _52
REMARK   21  A    between atoms: _52  and  _53
REMARK   22  A    between atoms: _55  and  _57
REMARK   23  A    between atoms: _57  and  _58
REMARK   24  A    between atoms: _60  and  _62
REMARK   25  A    between atoms: _62  and  _63
REMARK   26  A    between atoms: _62  and  _65
REMARK   27  A    between atoms: _65  and  _66
REMARK   28  A    between atoms: _69  and  _71
REMARK   29  A    between atoms: _71  and  _72
REMARK   30  A    between atoms: _74  and  _76
REMARK   31  A    between atoms: _76  and  _77
REMARK   32  A    between atoms: _76  and  _79
REMARK   33  A    between atoms: _79  and  _80
REMARK   34  A    between atoms: _80  and  _81
REMARK   35  A    between atoms: _81  and  _82
REMARK   36  A    between atoms: _91  and  _93
REMARK   37  A    between atoms: _93  and  _94
REMARK   38  A    between atoms: _93  and  _96
REMARK   39  A    between atoms: _96  and  _97
REMARK   40  A    between atoms: _100  and  _102
REMARK   41  A    between atoms: _102  and  _103
REMARK   42  A    between atoms: _106  and  _108
REMARK   43  A    between atoms: _108  and  _109
REMARK   44  A    between atoms: _108  and  _111
REMARK   45  A    between atoms: _111  and  _112
REMARK   46  A    between atoms: _118  and  _120
REMARK   47  A    between atoms: _120  and  _121
REMARK   48  A    between atoms: _120  and  _123
REMARK   49  A    between atoms: _123  and  _124
REMARK   50  A    between atoms: _129  and  _131
REMARK   51  A    between atoms: _131  and  _132
REMARK   52  A    between atoms: _131  and  _134
REMARK   53  A    between atoms: _134  and  _135
REMARK   54  A    between atoms: _138  and  _140
REMARK   55  A    between atoms: _140  and  _141
REMARK   56  A    between atoms: _140  and  _143
REMARK   57  A    between atoms: _143  and  _144
REMARK   58  A    between atoms: _149  and  _151
REMARK   59  A    between atoms: _151  and  _152
REMARK   60  A    between atoms: _151  and  _154
REMARK   61  A    between atoms: _154  and  _155
REMARK   62  A    between atoms: _161  and  _163
REMARK   63  A    between atoms: _163  and  _164
REMARK   64  A    between atoms: _163  and  _166
REMARK   65  A    between atoms: _166  and  _167
REMARK   66  A    between atoms: _173  and  _175
REMARK   67  A    between atoms: _175  and  _176
REMARK   68  A    between atoms: _175  and  _178
REMARK   69  A    between atoms: _178  and  _179
REMARK   70  A    between atoms: _179  and  _180
REMARK   71  A    between atoms: _180  and  _181
REMARK   72  A    between atoms: _190  and  _192
REMARK   73  A    between atoms: _192  and  _193
REMARK   74  A    between atoms: _192  and  _195
REMARK   75  A    between atoms: _195  and  _196
REMARK   76  A    between atoms: _201  and  _203
REMARK   77  A    between atoms: _203  and  _204
REMARK   78  A    between atoms: _203  and  _206
REMARK   79  A    between atoms: _206  and  _207
REMARK   80  A    between atoms: _210  and  _212
REMARK   81  A    between atoms: _212  and  _213
REMARK   82  A    between atoms: _212  and  _215
REMARK   83  A    between atoms: _215  and  _216
REMARK   84  A    between atoms: _219  and  _221
REMARK   85  A    between atoms: _221  and  _222
REMARK   86  A    between atoms: _221  and  _224
REMARK   87  A    between atoms: _224  and  _225
REMARK   88  A    between atoms: _230  and  _232
REMARK   89  A    between atoms: _232  and  _233
REMARK   90  A    between atoms: _232  and  _235
REMARK   91  A    between atoms: _235  and  _236
REMARK   92  A    between atoms: _241  and  _242
REMARK   93  A    between atoms: _244  and  _246
REMARK   94  A    between atoms: _246  and  _247
REMARK   95  A    between atoms: _246  and  _249
REMARK   96  A    between atoms: _249  and  _250
REMARK   97  A    between atoms: _253  and  _255
REMARK   98  A    between atoms: _255  and  _256
REMARK   99  A    between atoms: _255  and  _258
REMARK  100  A    between atoms: _258  and  _259
REMARK  101  A    between atoms: _264  and  _266
REMARK  102  A    between atoms: _266  and  _267
REMARK  103  A    between atoms: _266  and  _269
REMARK  104  A    between atoms: _269  and  _270
REMARK  105  A    between atoms: _275  and  _277
REMARK  106  A    between atoms: _277  and  _278
REMARK  107  A    between atoms: _277  and  _280
REMARK  108  A    between atoms: _280  and  _281
REMARK  109  A    between atoms: _284  and  _286
REMARK  110  A    between atoms: _286  and  _287
REMARK  111  A    between atoms: _286  and  _289
REMARK  112  A    between atoms: _292  and  _294
REMARK  113  A    between atoms: _294  and  _295
REMARK  114  A    between atoms: _294  and  _297
REMARK  115  A    between atoms: _297  and  _298
REMARK  116  A    between atoms: _301  and  _303
REMARK  117  A    between atoms: _303  and  _304
REMARK  118  A    between atoms: _307  and  _309
REMARK  119  A    between atoms: _309  and  _310
REMARK  120  A    between atoms: _309  and  _312
REMARK  121  A    between atoms: _312  and  _313
REMARK  122  A    between atoms: _316  and  _318
REMARK  123  A    between atoms: _318  and  _319
REMARK  124  A    between atoms: _318  and  _321
REMARK  125  A    between atoms: _321  and  _322
REMARK  126  A    between atoms: _322  and  _323
REMARK  127  A    between atoms: _326  and  _328
REMARK  128  A    between atoms: _328  and  _329
REMARK  129  A    between atoms: _328  and  _331
REMARK  130  A    between atoms: _331  and  _332
REMARK  131  A    between atoms: _337  and  _339
REMARK  132  A    between atoms: _339  and  _340
REMARK  133  A    between atoms: _342  and  _344
REMARK  134  A    between atoms: _344  and  _345
REMARK  135  A    between atoms: _344  and  _347
REMARK  136  A    between atoms: _350  and  _352
REMARK  137  A    between atoms: _352  and  _353
REMARK  138  A    between atoms: _356  and  _358
REMARK  139  A    between atoms: _358  and  _359
REMARK  140  A    between atoms: _358  and  _361
REMARK  141  A    between atoms: _361  and  _362
REMARK  142  A    between atoms: _367  and  _369
REMARK  143  A    between atoms: _369  and  _370
REMARK  144  A    between atoms: _369  and  _372
REMARK  145  A    between atoms: _372  and  _373
REMARK  146  A    between atoms: _373  and  _374
REMARK  147  A    between atoms: _374  and  _375
REMARK  148  A    between atoms: _375  and  _376
REMARK  149  A    between atoms: _380  and  _382
REMARK  150  A    between atoms: _382  and  _383
REMARK  151  A    between atoms: _382  and  _385
REMARK  152  A    between atoms: _385  and  _386
REMARK  153  A    between atoms: _389  and  _391
REMARK  154  A    between atoms: _391  and  _392
REMARK  155  A    between atoms: _391  and  _394
REMARK  156  A    between atoms: _394  and  _395
REMARK  157  A    between atoms: _400  and  _402
REMARK  158  A    between atoms: _402  and  _403
REMARK  159  A    between atoms: _405  and  _407
REMARK  160  A    between atoms: _407  and  _408
REMARK  161  A    between atoms: _407  and  _410
REMARK  162  A    between atoms: _410  and  _411
REMARK  163  A    between atoms: _414  and  _416
REMARK  164  A    between atoms: _416  and  _417
REMARK  165  A    between atoms: _416  and  _419
REMARK  166  A    between atoms: _419  and  _420
REMARK  167  A    between atoms: _420  and  _421
REMARK  168  A    between atoms: _421  and  _422
REMARK  169  A    between atoms: _422  and  _423
REMARK  170  A    between atoms: _427  and  _429
REMARK  171  A    between atoms: _429  and  _430
REMARK  172  A    between atoms: _429  and  _432
REMARK  173  A    between atoms: _432  and  _433
REMARK  174  A    between atoms: _433  and  _434
REMARK  175  A    between atoms: _434  and  _435
REMARK  176  A    between atoms: _444  and  _446
REMARK  177  A    between atoms: _446  and  _447
REMARK  178  A    between atoms: _446  and  _449
REMARK  179  A    between atoms: _449  and  _450
REMARK  180  A    between atoms: _455  and  _457
REMARK  181  A    between atoms: _457  and  _458
REMARK  182  A    between atoms: _457  and  _460
REMARK  183  A    between atoms: _460  and  _461
REMARK  184  A    between atoms: _466  and  _467
REMARK  185  A    between atoms: _469  and  _471
REMARK  186  A    between atoms: _471  and  _472
REMARK  187  A    between atoms: _471  and  _474
REMARK  188  A    between atoms: _474  and  _475
REMARK  189  A    between atoms: _475  and  _476
REMARK  190  A    between atoms: _476  and  _477
REMARK  191  A    between atoms: _477  and  _478
REMARK  192  A    between atoms: _482  and  _484
REMARK  193  A    between atoms: _484  and  _485
REMARK  194  A    between atoms: _484  and  _487
REMARK  195  A    between atoms: _487  and  _488
REMARK  196  A    between atoms: _490  and  _492
REMARK  197  A    between atoms: _492  and  _493
REMARK  198  A    between atoms: _492  and  _495
REMARK  199  A    between atoms: _495  and  _496
REMARK  200  A    between atoms: _499  and  _501
REMARK  201  A    between atoms: _501  and  _502
REMARK  202  A    between atoms: _501  and  _504
REMARK  203  A    between atoms: _504  and  _505
REMARK  204  A    between atoms: _505  and  _506
REMARK  205  A    between atoms: _509  and  _511
REMARK  206  A    between atoms: _511  and  _512
REMARK  207  A    between atoms: _515  and  _517
REMARK  208  A    between atoms: _517  and  _518
REMARK  209  A    between atoms: _517  and  _520
REMARK  210  A    between atoms: _520  and  _521
REMARK  211  A    between atoms: _523  and  _525
REMARK  212  A    between atoms: _525  and  _526
REMARK  213  A    between atoms: _528  and  _530
REMARK  214  A    between atoms: _530  and  _531
REMARK  215  A    between atoms: _530  and  _533
REMARK  216  A    between atoms: _533  and  _534
REMARK  217  A    between atoms: _537  and  _539
REMARK  218  A    between atoms: _539  and  _540
REMARK  219  A    between atoms: _542  and  _544
REMARK  220  A    between atoms: _544  and  _545
REMARK  221  A    between atoms: _544  and  _547
REMARK  222  A    between atoms: _547  and  _548
REMARK  223  A    between atoms: _553  and  _555
REMARK  224  A    between atoms: _555  and  _556
REMARK  225  A    between atoms: _555  and  _558
REMARK  226  A    between atoms: _558  and  _559
REMARK  227  A    between atoms: _559  and  _560
REMARK  228  A    between atoms: _567  and  _568
REMARK  229  A    between atoms: _568  and  _584
REMARK  230  A    between atoms: _569  and  _571
REMARK  231  A    between atoms: _571  and  _572
REMARK  232  A    between atoms: _572  and  _573
REMARK  233  A    between atoms: _577  and  _579
REMARK  234  A    between atoms: _579  and  _580
REMARK  235  A    between atoms: _579  and  _587
REMARK  236  A    between atoms: _580  and  _581
REMARK  237  A    between atoms: _581  and  _582
REMARK  238  A    between atoms: _582  and  _583
REMARK  239  A    between atoms: _583  and  _584
REMARK  240  A    between atoms: _589  and  _591
REMARK  241  A    between atoms: _591  and  _592
REMARK  242  A    between atoms: _591  and  _594
REMARK  243  A    between atoms: _594  and  _595
REMARK  244  A    between atoms: _598  and  _600
REMARK  245  A    between atoms: _600  and  _601
REMARK  246  A    between atoms: _603  and  _605
REMARK  247  A    between atoms: _605  and  _606
REMARK  248  A    between atoms: _609  and  _611
REMARK  249  A    between atoms: _611  and  _612
REMARK  250  A    between atoms: _611  and  _614
REMARK  251  A    between atoms: _614  and  _615
REMARK  252  A    between atoms: _618  and  _620
REMARK  253  A    between atoms: _620  and  _621
REMARK  254  A    between atoms: _620  and  _623
REMARK  255  A    between atoms: _623  and  _624
REMARK  256  A    between atoms: _629  and  _630
REMARK                            x       y       z     vdW  Elec       q    Type
REMARK                         _______ _______ _______ _____ _____    ______ ____
ROOT
ATOM      1  O   HOH     1      26.904  23.330  21.803  0.00  0.00    +0.000 OA
ENDROOT
TORSDOF 0
REMARK  Name = ../refined-set-2016/3syr/3syr_pocket.pdb
REMARK  256 active torsions:
REMARK  status: ('A' for Active; 'I' for Inactive)
REMARK    1  A    between atoms: _1  and  _3
REMARK    2  A    between atoms: _3  and  _4
REMARK    3  A    between atoms: _3  and  _6
REMARK    4  A    between atoms: _6  and  _7
REMARK    5  A    between atoms: _12  and  _13
REMARK    6  A    between atoms: _15  and  _17
REMARK    7  A    between atoms: _17  and  _18
REMARK    8  A    between atoms: _17  and  _20
REMARK    9  A    between atoms: _20  and  _21
REMARK   10  A    between atoms: _21  and  _22
REMARK   11  A    between atoms: _25  and  _27
REMARK   12  A    between atoms: _27  and  _28
REMARK   13  A    between atoms: _27  and  _30
REMARK   14  A    between atoms: _30  and  _31
REMARK   15  A    between atoms: _36  and  _37
REMARK   16  A    between atoms: _39  and  _41
REMARK   17  A    between atoms: _41  and  _42
REMARK   18  A    between atoms: _41  and  _44
REMARK   19  A    between atoms: _44  and  _45
REMARK   20  A    between atoms: _50  and  _52
REMARK   21  A    between atoms: _52  and  _53
REMARK   22  A    between atoms: _55  and  _57
REMARK   23  A    between atoms: _57  and  _58
REMARK   24  A    between atoms: _60  and  _62
REMARK   25  A    between atoms: _62  and  _63
REMARK   26  A    between atoms: _62  and  _65
REMARK   27  A    between atoms: _65  and  _66
REMARK   28  A    between atoms: _69  and  _71
REMARK   29  A    between atoms: _71  and  _72
REMARK   30  A    between atoms: _74  and  _76
REMARK   31  A    between atoms: _76  and  _77
REMARK   32  A    between atoms: _76  and  _79
REMARK   33  A    between atoms: _79  and  _80
REMARK   34  A    between atoms: _80  and  _81
REMARK   35  A    between atoms: _81  and  _82
REMARK   36  A    between atoms: _91  and  _93
REMARK   37  A    between atoms: _93  and  _94
REMARK   38  A    between atoms: _93  and  _96
REMARK   39  A    between atoms: _96  and  _97
REMARK   40  A    between atoms: _100  and  _102
REMARK   41  A    between atoms: _102  and  _103
REMARK   42  A    between atoms: _106  and  _108
REMARK   43  A    between atoms: _108  and  _109
REMARK   44  A    between atoms: _108  and  _111
REMARK   45  A    between atoms: _111  and  _112
REMARK   46  A    between atoms: _118  and  _120
REMARK   47  A    between atoms: _120  and  _121
REMARK   48  A    between atoms: _120  and  _123
REMARK   49  A    between atoms: _123  and  _124
REMARK   50  A    between atoms: _129  and  _131
REMARK   51  A    between atoms: _131  and  _132
REMARK   52  A    between atoms: _131  and  _134
REMARK   53  A    between atoms: _134  and  _135
REMARK   54  A    between atoms: _138  and  _140
REMARK   55  A    between atoms: _140  and  _141
REMARK   56  A    between atoms: _140  and  _143
REMARK   57  A    between atoms: _143  and  _144
REMARK   58  A    between atoms: _149  and  _151
REMARK   59  A    between atoms: _151  and  _152
REMARK   60  A    between atoms: _151  and  _154
REMARK   61  A    between atoms: _154  and  _155
REMARK   62  A    between atoms: _161  and  _163
REMARK   63  A    between atoms: _163  and  _164
REMARK   64  A    between atoms: _163  and  _166
REMARK   65  A    between atoms: _166  and  _167
REMARK   66  A    between atoms: _173  and  _175
REMARK   67  A    between atoms: _175  and  _176
REMARK   68  A    between atoms: _175  and  _178
REMARK   69  A    between atoms: _178  and  _179
REMARK   70  A    between atoms: _179  and  _180
REMARK   71  A    between atoms: _180  and  _181
REMARK   72  A    between atoms: _190  and  _192
REMARK   73  A    between atoms: _192  and  _193
REMARK   74  A    between atoms: _192  and  _195
REMARK   75  A    between atoms: _195  and  _196
REMARK   76  A    between atoms: _201  and  _203
REMARK   77  A    between atoms: _203  and  _204
REMARK   78  A    between atoms: _203  and  _206
REMARK   79  A    between atoms: _206  and  _207
REMARK   80  A    between atoms: _210  and  _212
REMARK   81  A    between atoms: _212  and  _213
REMARK   82  A    between atoms: _212  and  _215
REMARK   83  A    between atoms: _215  and  _216
REMARK   84  A    between atoms: _219  and  _221
REMARK   85  A    between atoms: _221  and  _222
REMARK   86  A    between atoms: _221  and  _224
REMARK   87  A    between atoms: _224  and  _225
REMARK   88  A    between atoms: _230  and  _232
REMARK   89  A    between atoms: _232  and  _233
REMARK   90  A    between atoms: _232  and  _235
REMARK   91  A    between atoms: _235  and  _236
REMARK   92  A    between atoms: _241  and  _242
REMARK   93  A    between atoms: _244  and  _246
REMARK   94  A    between atoms: _246  and  _247
REMARK   95  A    between atoms: _246  and  _249
REMARK   96  A    between atoms: _249  and  _250
REMARK   97  A    between atoms: _253  and  _255
REMARK   98  A    between atoms: _255  and  _256
REMARK   99  A    between atoms: _255  and  _258
REMARK  100  A    between atoms: _258  and  _259
REMARK  101  A    between atoms: _264  and  _266
REMARK  102  A    between atoms: _266  and  _267
REMARK  103  A    between atoms: _266  and  _269
REMARK  104  A    between atoms: _269  and  _270
REMARK  105  A    between atoms: _275  and  _277
REMARK  106  A    between atoms: _277  and  _278
REMARK  107  A    between atoms: _277  and  _280
REMARK  108  A    between atoms: _280  and  _281
REMARK  109  A    between atoms: _284  and  _286
REMARK  110  A    between atoms: _286  and  _287
REMARK  111  A    between atoms: _286  and  _289
REMARK  112  A    between atoms: _292  and  _294
REMARK  113  A    between atoms: _294  and  _295
REMARK  114  A    between atoms: _294  and  _297
REMARK  115  A    between atoms: _297  and  _298
REMARK  116  A    between atoms: _301  and  _303
REMARK  117  A    between atoms: _303  and  _304
REMARK  118  A    between atoms: _307  and  _309
REMARK  119  A    between atoms: _309  and  _310
REMARK  120  A    between atoms: _309  and  _312
REMARK  121  A    between atoms: _312  and  _313
REMARK  122  A    between atoms: _316  and  _318
REMARK  123  A    between atoms: _318  and  _319
REMARK  124  A    between atoms: _318  and  _321
REMARK  125  A    between atoms: _321  and  _322
REMARK  126  A    between atoms: _322  and  _323
REMARK  127  A    between atoms: _326  and  _328
REMARK  128  A    between atoms: _328  and  _329
REMARK  129  A    between atoms: _328  and  _331
REMARK  130  A    between atoms: _331  and  _332
REMARK  131  A    between atoms: _337  and  _339
REMARK  132  A    between atoms: _339  and  _340
REMARK  133  A    between atoms: _342  and  _344
REMARK  134  A    between atoms: _344  and  _345
REMARK  135  A    between atoms: _344  and  _347
REMARK  136  A    between atoms: _350  and  _352
REMARK  137  A    between atoms: _352  and  _353
REMARK  138  A    between atoms: _356  and  _358
REMARK  139  A    between atoms: _358  and  _359
REMARK  140  A    between atoms: _358  and  _361
REMARK  141  A    between atoms: _361  and  _362
REMARK  142  A    between atoms: _367  and  _369
REMARK  143  A    between atoms: _369  and  _370
REMARK  144  A    between atoms: _369  and  _372
REMARK  145  A    between atoms: _372  and  _373
REMARK  146  A    between atoms: _373  and  _374
REMARK  147  A    between atoms: _374  and  _375
REMARK  148  A    between atoms: _375  and  _376
REMARK  149  A    between atoms: _380  and  _382
REMARK  150  A    between atoms: _382  and  _383
REMARK  151  A    between atoms: _382  and  _385
REMARK  152  A    between atoms: _385  and  _386
REMARK  153  A    between atoms: _389  and  _391
REMARK  154  A    between atoms: _391  and  _392
REMARK  155  A    between atoms: _391  and  _394
REMARK  156  A    between atoms: _394  and  _395
REMARK  157  A    between atoms: _400  and  _402
REMARK  158  A    between atoms: _402  and  _403
REMARK  159  A    between atoms: _405  and  _407
REMARK  160  A    between atoms: _407  and  _408
REMARK  161  A    between atoms: _407  and  _410
REMARK  162  A    between atoms: _410  and  _411
REMARK  163  A    between atoms: _414  and  _416
REMARK  164  A    between atoms: _416  and  _417
REMARK  165  A    between atoms: _416  and  _419
REMARK  166  A    between atoms: _419  and  _420
REMARK  167  A    between atoms: _420  and  _421
REMARK  168  A    between atoms: _421  and  _422
REMARK  169  A    between atoms: _422  and  _423
REMARK  170  A    between atoms: _427  and  _429
REMARK  171  A    between atoms: _429  and  _430
REMARK  172  A    between atoms: _429  and  _432
REMARK  173  A    between atoms: _432  and  _433
REMARK  174  A    between atoms: _433  and  _434
REMARK  175  A    between atoms: _434  and  _435
REMARK  176  A    between atoms: _444  and  _446
REMARK  177  A    between atoms: _446  and  _447
REMARK  178  A    between atoms: _446  and  _449
REMARK  179  A    between atoms: _449  and  _450
REMARK  180  A    between atoms: _455  and  _457
REMARK  181  A    between atoms: _457  and  _458
REMARK  182  A    between atoms: _457  and  _460
REMARK  183  A    between atoms: _460  and  _461
REMARK  184  A    between atoms: _466  and  _467
REMARK  185  A    between atoms: _469  and  _471
REMARK  186  A    between atoms: _471  and  _472
REMARK  187  A    between atoms: _471  and  _474
REMARK  188  A    between atoms: _474  and  _475
REMARK  189  A    between atoms: _475  and  _476
REMARK  190  A    between atoms: _476  and  _477
REMARK  191  A    between atoms: _477  and  _478
REMARK  192  A    between atoms: _482  and  _484
REMARK  193  A    between atoms: _484  and  _485
REMARK  194  A    between atoms: _484  and  _487
REMARK  195  A    between atoms: _487  and  _488
REMARK  196  A    between atoms: _490  and  _492
REMARK  197  A    between atoms: _492  and  _493
REMARK  198  A    between atoms: _492  and  _495
REMARK  199  A    between atoms: _495  and  _496
REMARK  200  A    between atoms: _499  and  _501
REMARK  201  A    between atoms: _501  and  _502
REMARK  202  A    between atoms: _501  and  _504
REMARK  203  A    between atoms: _504  and  _505
REMARK  204  A    between atoms: _505  and  _506
REMARK  205  A    between atoms: _509  and  _511
REMARK  206  A    between atoms: _511  and  _512
REMARK  207  A    between atoms: _515  and  _517
REMARK  208  A    between atoms: _517  and  _518
REMARK  209  A    between atoms: _517  and  _520
REMARK  210  A    between atoms: _520  and  _521
REMARK  211  A    between atoms: _523  and  _525
REMARK  212  A    between atoms: _525  and  _526
REMARK  213  A    between atoms: _528  and  _530
REMARK  214  A    between atoms: _530  and  _531
REMARK  215  A    between atoms: _530  and  _533
REMARK  216  A    between atoms: _533  and  _534
REMARK  217  A    between atoms: _537  and  _539
REMARK  218  A    between atoms: _539  and  _540
REMARK  219  A    between atoms: _542  and  _544
REMARK  220  A    between atoms: _544  and  _545
REMARK  221  A    between atoms: _544  and  _547
REMARK  222  A    between atoms: _547  and  _548
REMARK  223  A    between atoms: _553  and  _555
REMARK  224  A    between atoms: _555  and  _556
REMARK  225  A    between atoms: _555  and  _558
REMARK  226  A    between atoms: _558  and  _559
REMARK  227  A    between atoms: _559  and  _560
REMARK  228  A    between atoms: _567  and  _568
REMARK  229  A    between atoms: _568  and  _584
REMARK  230  A    between atoms: _569  and  _571
REMARK  231  A    between atoms: _571  and  _572
REMARK  232  A    between atoms: _572  and  _573
REMARK  233  A    between atoms: _577  and  _579
REMARK  234  A    between atoms: _579  and  _580
REMARK  235  A    between atoms: _579  and  _587
REMARK  236  A    between atoms: _580  and  _581
REMARK  237  A    between atoms: _581  and  _582
REMARK  238  A    between atoms: _582  and  _583
REMARK  239  A    between atoms: _583  and  _584
REMARK  240  A    between atoms: _589  and  _591
REMARK  241  A    between atoms: _591  and  _592
REMARK  242  A    between atoms: _591  and  _594
REMARK  243  A    between atoms: _594  and  _595
REMARK  244  A    between atoms: _598  and  _600
REMARK  245  A    between atoms: _600  and  _601
REMARK  246  A    between atoms: _603  and  _605
REMARK  247  A    between atoms: _605  and  _606
REMARK  248  A    between atoms: _609  and  _611
REMARK  249  A    between atoms: _611  and  _612
REMARK  250  A    between atoms: _611  and  _614
REMARK  251  A    between atoms: _614  and  _615
REMARK  252  A    between atoms: _618  and  _620
REMARK  253  A    between atoms: _620  and  _621
REMARK  254  A    between atoms: _620  and  _623
REMARK  255  A    between atoms: _623  and  _624
REMARK  256  A    between atoms: _629  and  _630
REMARK                            x       y       z     vdW  Elec       q    Type
REMARK                         _______ _______ _______ _____ _____    ______ ____
ROOT
ATOM      1  O   HOH     1      35.194  12.889  30.970  0.00  0.00    +0.000 OA
ENDROOT
TORSDOF 0
REMARK  Name = ../refined-set-2016/3syr/3syr_pocket.pdb
REMARK  256 active torsions:
REMARK  status: ('A' for Active; 'I' for Inactive)
REMARK    1  A    between atoms: _1  and  _3
REMARK    2  A    between atoms: _3  and  _4
REMARK    3  A    between atoms: _3  and  _6
REMARK    4  A    between atoms: _6  and  _7
REMARK    5  A    between atoms: _12  and  _13
REMARK    6  A    between atoms: _15  and  _17
REMARK    7  A    between atoms: _17  and  _18
REMARK    8  A    between atoms: _17  and  _20
REMARK    9  A    between atoms: _20  and  _21
REMARK   10  A    between atoms: _21  and  _22
REMARK   11  A    between atoms: _25  and  _27
REMARK   12  A    between atoms: _27  and  _28
REMARK   13  A    between atoms: _27  and  _30
REMARK   14  A    between atoms: _30  and  _31
REMARK   15  A    between atoms: _36  and  _37
REMARK   16  A    between atoms: _39  and  _41
REMARK   17  A    between atoms: _41  and  _42
REMARK   18  A    between atoms: _41  and  _44
REMARK   19  A    between atoms: _44  and  _45
REMARK   20  A    between atoms: _50  and  _52
REMARK   21  A    between atoms: _52  and  _53
REMARK   22  A    between atoms: _55  and  _57
REMARK   23  A    between atoms: _57  and  _58
REMARK   24  A    between atoms: _60  and  _62
REMARK   25  A    between atoms: _62  and  _63
REMARK   26  A    between atoms: _62  and  _65
REMARK   27  A    between atoms: _65  and  _66
REMARK   28  A    between atoms: _69  and  _71
REMARK   29  A    between atoms: _71  and  _72
REMARK   30  A    between atoms: _74  and  _76
REMARK   31  A    between atoms: _76  and  _77
REMARK   32  A    between atoms: _76  and  _79
REMARK   33  A    between atoms: _79  and  _80
REMARK   34  A    between atoms: _80  and  _81
REMARK   35  A    between atoms: _81  and  _82
REMARK   36  A    between atoms: _91  and  _93
REMARK   37  A    between atoms: _93  and  _94
REMARK   38  A    between atoms: _93  and  _96
REMARK   39  A    between atoms: _96  and  _97
REMARK   40  A    between atoms: _100  and  _102
REMARK   41  A    between atoms: _102  and  _103
REMARK   42  A    between atoms: _106  and  _108
REMARK   43  A    between atoms: _108  and  _109
REMARK   44  A    between atoms: _108  and  _111
REMARK   45  A    between atoms: _111  and  _112
REMARK   46  A    between atoms: _118  and  _120
REMARK   47  A    between atoms: _120  and  _121
REMARK   48  A    between atoms: _120  and  _123
REMARK   49  A    between atoms: _123  and  _124
REMARK   50  A    between atoms: _129  and  _131
REMARK   51  A    between atoms: _131  and  _132
REMARK   52  A    between atoms: _131  and  _134
REMARK   53  A    between atoms: _134  and  _135
REMARK   54  A    between atoms: _138  and  _140
REMARK   55  A    between atoms: _140  and  _141
REMARK   56  A    between atoms: _140  and  _143
REMARK   57  A    between atoms: _143  and  _144
REMARK   58  A    between atoms: _149  and  _151
REMARK   59  A    between atoms: _151  and  _152
REMARK   60  A    between atoms: _151  and  _154
REMARK   61  A    between atoms: _154  and  _155
REMARK   62  A    between atoms: _161  and  _163
REMARK   63  A    between atoms: _163  and  _164
REMARK   64  A    between atoms: _163  and  _166
REMARK   65  A    between atoms: _166  and  _167
REMARK   66  A    between atoms: _173  and  _175
REMARK   67  A    between atoms: _175  and  _176
REMARK   68  A    between atoms: _175  and  _178
REMARK   69  A    between atoms: _178  and  _179
REMARK   70  A    between atoms: _179  and  _180
REMARK   71  A    between atoms: _180  and  _181
REMARK   72  A    between atoms: _190  and  _192
REMARK   73  A    between atoms: _192  and  _193
REMARK   74  A    between atoms: _192  and  _195
REMARK   75  A    between atoms: _195  and  _196
REMARK   76  A    between atoms: _201  and  _203
REMARK   77  A    between atoms: _203  and  _204
REMARK   78  A    between atoms: _203  and  _206
REMARK   79  A    between atoms: _206  and  _207
REMARK   80  A    between atoms: _210  and  _212
REMARK   81  A    between atoms: _212  and  _213
REMARK   82  A    between atoms: _212  and  _215
REMARK   83  A    between atoms: _215  and  _216
REMARK   84  A    between atoms: _219  and  _221
REMARK   85  A    between atoms: _221  and  _222
REMARK   86  A    between atoms: _221  and  _224
REMARK   87  A    between atoms: _224  and  _225
REMARK   88  A    between atoms: _230  and  _232
REMARK   89  A    between atoms: _232  and  _233
REMARK   90  A    between atoms: _232  and  _235
REMARK   91  A    between atoms: _235  and  _236
REMARK   92  A    between atoms: _241  and  _242
REMARK   93  A    between atoms: _244  and  _246
REMARK   94  A    between atoms: _246  and  _247
REMARK   95  A    between atoms: _246  and  _249
REMARK   96  A    between atoms: _249  and  _250
REMARK   97  A    between atoms: _253  and  _255
REMARK   98  A    between atoms: _255  and  _256
REMARK   99  A    between atoms: _255  and  _258
REMARK  100  A    between atoms: _258  and  _259
REMARK  101  A    between atoms: _264  and  _266
REMARK  102  A    between atoms: _266  and  _267
REMARK  103  A    between atoms: _266  and  _269
REMARK  104  A    between atoms: _269  and  _270
REMARK  105  A    between atoms: _275  and  _277
REMARK  106  A    between atoms: _277  and  _278
REMARK  107  A    between atoms: _277  and  _280
REMARK  108  A    between atoms: _280  and  _281
REMARK  109  A    between atoms: _284  and  _286
REMARK  110  A    between atoms: _286  and  _287
REMARK  111  A    between atoms: _286  and  _289
REMARK  112  A    between atoms: _292  and  _294
REMARK  113  A    between atoms: _294  and  _295
REMARK  114  A    between atoms: _294  and  _297
REMARK  115  A    between atoms: _297  and  _298
REMARK  116  A    between atoms: _301  and  _303
REMARK  117  A    between atoms: _303  and  _304
REMARK  118  A    between atoms: _307  and  _309
REMARK  119  A    between atoms: _309  and  _310
REMARK  120  A    between atoms: _309  and  _312
REMARK  121  A    between atoms: _312  and  _313
REMARK  122  A    between atoms: _316  and  _318
REMARK  123  A    between atoms: _318  and  _319
REMARK  124  A    between atoms: _318  and  _321
REMARK  125  A    between atoms: _321  and  _322
REMARK  126  A    between atoms: _322  and  _323
REMARK  127  A    between atoms: _326  and  _328
REMARK  128  A    between atoms: _328  and  _329
REMARK  129  A    between atoms: _328  and  _331
REMARK  130  A    between atoms: _331  and  _332
REMARK  131  A    between atoms: _337  and  _339
REMARK  132  A    between atoms: _339  and  _340
REMARK  133  A    between atoms: _342  and  _344
REMARK  134  A    between atoms: _344  and  _345
REMARK  135  A    between atoms: _344  and  _347
REMARK  136  A    between atoms: _350  and  _352
REMARK  137  A    between atoms: _352  and  _353
REMARK  138  A    between atoms: _356  and  _358
REMARK  139  A    between atoms: _358  and  _359
REMARK  140  A    between atoms: _358  and  _361
REMARK  141  A    between atoms: _361  and  _362
REMARK  142  A    between atoms: _367  and  _369
REMARK  143  A    between atoms: _369  and  _370
REMARK  144  A    between atoms: _369  and  _372
REMARK  145  A    between atoms: _372  and  _373
REMARK  146  A    between atoms: _373  and  _374
REMARK  147  A    between atoms: _374  and  _375
REMARK  148  A    between atoms: _375  and  _376
REMARK  149  A    between atoms: _380  and  _382
REMARK  150  A    between atoms: _382  and  _383
REMARK  151  A    between atoms: _382  and  _385
REMARK  152  A    between atoms: _385  and  _386
REMARK  153  A    between atoms: _389  and  _391
REMARK  154  A    between atoms: _391  and  _392
REMARK  155  A    between atoms: _391  and  _394
REMARK  156  A    between atoms: _394  and  _395
REMARK  157  A    between atoms: _400  and  _402
REMARK  158  A    between atoms: _402  and  _403
REMARK  159  A    between atoms: _405  and  _407
REMARK  160  A    between atoms: _407  and  _408
REMARK  161  A    between atoms: _407  and  _410
REMARK  162  A    between atoms: _410  and  _411
REMARK  163  A    between atoms: _414  and  _416
REMARK  164  A    between atoms: _416  and  _417
REMARK  165  A    between atoms: _416  and  _419
REMARK  166  A    between atoms: _419  and  _420
REMARK  167  A    between atoms: _420  and  _421
REMARK  168  A    between atoms: _421  and  _422
REMARK  169  A    between atoms: _422  and  _423
REMARK  170  A    between atoms: _427  and  _429
REMARK  171  A    between atoms: _429  and  _430
REMARK  172  A    between atoms: _429  and  _432
REMARK  173  A    between atoms: _432  and  _433
REMARK  174  A    between atoms: _433  and  _434
REMARK  175  A    between atoms: _434  and  _435
REMARK  176  A    between atoms: _444  and  _446
REMARK  177  A    between atoms: _446  and  _447
REMARK  178  A    between atoms: _446  and  _449
REMARK  179  A    between atoms: _449  and  _450
REMARK  180  A    between atoms: _455  and  _457
REMARK  181  A    between atoms: _457  and  _458
REMARK  182  A    between atoms: _457  and  _460
REMARK  183  A    between atoms: _460  and  _461
REMARK  184  A    between atoms: _466  and  _467
REMARK  185  A    between atoms: _469  and  _471
REMARK  186  A    between atoms: _471  and  _472
REMARK  187  A    between atoms: _471  and  _474
REMARK  188  A    between atoms: _474  and  _475
REMARK  189  A    between atoms: _475  and  _476
REMARK  190  A    between atoms: _476  and  _477
REMARK  191  A    between atoms: _477  and  _478
REMARK  192  A    between atoms: _482  and  _484
REMARK  193  A    between atoms: _484  and  _485
REMARK  194  A    between atoms: _484  and  _487
REMARK  195  A    between atoms: _487  and  _488
REMARK  196  A    between atoms: _490  and  _492
REMARK  197  A    between atoms: _492  and  _493
REMARK  198  A    between atoms: _492  and  _495
REMARK  199  A    between atoms: _495  and  _496
REMARK  200  A    between atoms: _499  and  _501
REMARK  201  A    between atoms: _501  and  _502
REMARK  202  A    between atoms: _501  and  _504
REMARK  203  A    between atoms: _504  and  _505
REMARK  204  A    between atoms: _505  and  _506
REMARK  205  A    between atoms: _509  and  _511
REMARK  206  A    between atoms: _511  and  _512
REMARK  207  A    between atoms: _515  and  _517
REMARK  208  A    between atoms: _517  and  _518
REMARK  209  A    between atoms: _517  and  _520
REMARK  210  A    between atoms: _520  and  _521
REMARK  211  A    between atoms: _523  and  _525
REMARK  212  A    between atoms: _525  and  _526
REMARK  213  A    between atoms: _528  and  _530
REMARK  214  A    between atoms: _530  and  _531
REMARK  215  A    between atoms: _530  and  _533
REMARK  216  A    between atoms: _533  and  _534
REMARK  217  A    between atoms: _537  and  _539
REMARK  218  A    between atoms: _539  and  _540
REMARK  219  A    between atoms: _542  and  _544
REMARK  220  A    between atoms: _544  and  _545
REMARK  221  A    between atoms: _544  and  _547
REMARK  222  A    between atoms: _547  and  _548
REMARK  223  A    between atoms: _553  and  _555
REMARK  224  A    between atoms: _555  and  _556
REMARK  225  A    between atoms: _555  and  _558
REMARK  226  A    between atoms: _558  and  _559
REMARK  227  A    between atoms: _559  and  _560
REMARK  228  A    between atoms: _567  and  _568
REMARK  229  A    between atoms: _568  and  _584
REMARK  230  A    between atoms: _569  and  _571
REMARK  231  A    between atoms: _571  and  _572
REMARK  232  A    between atoms: _572  and  _573
REMARK  233  A    between atoms: _577  and  _579
REMARK  234  A    between atoms: _579  and  _580
REMARK  235  A    between atoms: _579  and  _587
REMARK  236  A    between atoms: _580  and  _581
REMARK  237  A    between atoms: _581  and  _582
REMARK  238  A    between atoms: _582  and  _583
REMARK  239  A    between atoms: _583  and  _584
REMARK  240  A    between atoms: _589  and  _591
REMARK  241  A    between atoms: _591  and  _592
REMARK  242  A    between atoms: _591  and  _594
REMARK  243  A    between atoms: _594  and  _595
REMARK  244  A    between atoms: _598  and  _600
REMARK  245  A    between atoms: _600  and  _601
REMARK  246  A    between atoms: _603  and  _605
REMARK  247  A    between atoms: _605  and  _606
REMARK  248  A    between atoms: _609  and  _611
REMARK  249  A    between atoms: _611  and  _612
REMARK  250  A    between atoms: _611  and  _614
REMARK  251  A    between atoms: _614  and  _615
REMARK  252  A    between atoms: _618  and  _620
REMARK  253  A    between atoms: _620  and  _621
REMARK  254  A    between atoms: _620  and  _623
REMARK  255  A    between atoms: _623  and  _624
REMARK  256  A    between atoms: _629  and  _630
REMARK                            x       y       z     vdW  Elec       q    Type
REMARK                         _______ _______ _______ _____ _____    ______ ____
ROOT
ATOM      1  O   HOH     1      31.331  24.009  33.065  0.00  0.00    +0.000 OA
ENDROOT
TORSDOF 0
REMARK  Name = ../refined-set-2016/3syr/3syr_pocket.pdb
REMARK  256 active torsions:
REMARK  status: ('A' for Active; 'I' for Inactive)
REMARK    1  A    between atoms: _1  and  _3
REMARK    2  A    between atoms: _3  and  _4
REMARK    3  A    between atoms: _3  and  _6
REMARK    4  A    between atoms: _6  and  _7
REMARK    5  A    between atoms: _12  and  _13
REMARK    6  A    between atoms: _15  and  _17
REMARK    7  A    between atoms: _17  and  _18
REMARK    8  A    between atoms: _17  and  _20
REMARK    9  A    between atoms: _20  and  _21
REMARK   10  A    between atoms: _21  and  _22
REMARK   11  A    between atoms: _25  and  _27
REMARK   12  A    between atoms: _27  and  _28
REMARK   13  A    between atoms: _27  and  _30
REMARK   14  A    between atoms: _30  and  _31
REMARK   15  A    between atoms: _36  and  _37
REMARK   16  A    between atoms: _39  and  _41
REMARK   17  A    between atoms: _41  and  _42
REMARK   18  A    between atoms: _41  and  _44
REMARK   19  A    between atoms: _44  and  _45
REMARK   20  A    between atoms: _50  and  _52
REMARK   21  A    between atoms: _52  and  _53
REMARK   22  A    between atoms: _55  and  _57
REMARK   23  A    between atoms: _57  and  _58
REMARK   24  A    between atoms: _60  and  _62
REMARK   25  A    between atoms: _62  and  _63
REMARK   26  A    between atoms: _62  and  _65
REMARK   27  A    between atoms: _65  and  _66
REMARK   28  A    between atoms: _69  and  _71
REMARK   29  A    between atoms: _71  and  _72
REMARK   30  A    between atoms: _74  and  _76
REMARK   31  A    between atoms: _76  and  _77
REMARK   32  A    between atoms: _76  and  _79
REMARK   33  A    between atoms: _79  and  _80
REMARK   34  A    between atoms: _80  and  _81
REMARK   35  A    between atoms: _81  and  _82
REMARK   36  A    between atoms: _91  and  _93
REMARK   37  A    between atoms: _93  and  _94
REMARK   38  A    between atoms: _93  and  _96
REMARK   39  A    between atoms: _96  and  _97
REMARK   40  A    between atoms: _100  and  _102
REMARK   41  A    between atoms: _102  and  _103
REMARK   42  A    between atoms: _106  and  _108
REMARK   43  A    between atoms: _108  and  _109
REMARK   44  A    between atoms: _108  and  _111
REMARK   45  A    between atoms: _111  and  _112
REMARK   46  A    between atoms: _118  and  _120
REMARK   47  A    between atoms: _120  and  _121
REMARK   48  A    between atoms: _120  and  _123
REMARK   49  A    between atoms: _123  and  _124
REMARK   50  A    between atoms: _129  and  _131
REMARK   51  A    between atoms: _131  and  _132
REMARK   52  A    between atoms: _131  and  _134
REMARK   53  A    between atoms: _134  and  _135
REMARK   54  A    between atoms: _138  and  _140
REMARK   55  A    between atoms: _140  and  _141
REMARK   56  A    between atoms: _140  and  _143
REMARK   57  A    between atoms: _143  and  _144
REMARK   58  A    between atoms: _149  and  _151
REMARK   59  A    between atoms: _151  and  _152
REMARK   60  A    between atoms: _151  and  _154
REMARK   61  A    between atoms: _154  and  _155
REMARK   62  A    between atoms: _161  and  _163
REMARK   63  A    between atoms: _163  and  _164
REMARK   64  A    between atoms: _163  and  _166
REMARK   65  A    between atoms: _166  and  _167
REMARK   66  A    between atoms: _173  and  _175
REMARK   67  A    between atoms: _175  and  _176
REMARK   68  A    between atoms: _175  and  _178
REMARK   69  A    between atoms: _178  and  _179
REMARK   70  A    between atoms: _179  and  _180
REMARK   71  A    between atoms: _180  and  _181
REMARK   72  A    between atoms: _190  and  _192
REMARK   73  A    between atoms: _192  and  _193
REMARK   74  A    between atoms: _192  and  _195
REMARK   75  A    between atoms: _195  and  _196
REMARK   76  A    between atoms: _201  and  _203
REMARK   77  A    between atoms: _203  and  _204
REMARK   78  A    between atoms: _203  and  _206
REMARK   79  A    between atoms: _206  and  _207
REMARK   80  A    between atoms: _210  and  _212
REMARK   81  A    between atoms: _212  and  _213
REMARK   82  A    between atoms: _212  and  _215
REMARK   83  A    between atoms: _215  and  _216
REMARK   84  A    between atoms: _219  and  _221
REMARK   85  A    between atoms: _221  and  _222
REMARK   86  A    between atoms: _221  and  _224
REMARK   87  A    between atoms: _224  and  _225
REMARK   88  A    between atoms: _230  and  _232
REMARK   89  A    between atoms: _232  and  _233
REMARK   90  A    between atoms: _232  and  _235
REMARK   91  A    between atoms: _235  and  _236
REMARK   92  A    between atoms: _241  and  _242
REMARK   93  A    between atoms: _244  and  _246
REMARK   94  A    between atoms: _246  and  _247
REMARK   95  A    between atoms: _246  and  _249
REMARK   96  A    between atoms: _249  and  _250
REMARK   97  A    between atoms: _253  and  _255
REMARK   98  A    between atoms: _255  and  _256
REMARK   99  A    between atoms: _255  and  _258
REMARK  100  A    between atoms: _258  and  _259
REMARK  101  A    between atoms: _264  and  _266
REMARK  102  A    between atoms: _266  and  _267
REMARK  103  A    between atoms: _266  and  _269
REMARK  104  A    between atoms: _269  and  _270
REMARK  105  A    between atoms: _275  and  _277
REMARK  106  A    between atoms: _277  and  _278
REMARK  107  A    between atoms: _277  and  _280
REMARK  108  A    between atoms: _280  and  _281
REMARK  109  A    between atoms: _284  and  _286
REMARK  110  A    between atoms: _286  and  _287
REMARK  111  A    between atoms: _286  and  _289
REMARK  112  A    between atoms: _292  and  _294
REMARK  113  A    between atoms: _294  and  _295
REMARK  114  A    between atoms: _294  and  _297
REMARK  115  A    between atoms: _297  and  _298
REMARK  116  A    between atoms: _301  and  _303
REMARK  117  A    between atoms: _303  and  _304
REMARK  118  A    between atoms: _307  and  _309
REMARK  119  A    between atoms: _309  and  _310
REMARK  120  A    between atoms: _309  and  _312
REMARK  121  A    between atoms: _312  and  _313
REMARK  122  A    between atoms: _316  and  _318
REMARK  123  A    between atoms: _318  and  _319
REMARK  124  A    between atoms: _318  and  _321
REMARK  125  A    between atoms: _321  and  _322
REMARK  126  A    between atoms: _322  and  _323
REMARK  127  A    between atoms: _326  and  _328
REMARK  128  A    between atoms: _328  and  _329
REMARK  129  A    between atoms: _328  and  _331
REMARK  130  A    between atoms: _331  and  _332
REMARK  131  A    between atoms: _337  and  _339
REMARK  132  A    between atoms: _339  and  _340
REMARK  133  A    between atoms: _342  and  _344
REMARK  134  A    between atoms: _344  and  _345
REMARK  135  A    between atoms: _344  and  _347
REMARK  136  A    between atoms: _350  and  _352
REMARK  137  A    between atoms: _352  and  _353
REMARK  138  A    between atoms: _356  and  _358
REMARK  139  A    between atoms: _358  and  _359
REMARK  140  A    between atoms: _358  and  _361
REMARK  141  A    between atoms: _361  and  _362
REMARK  142  A    between atoms: _367  and  _369
REMARK  143  A    between atoms: _369  and  _370
REMARK  144  A    between atoms: _369  and  _372
REMARK  145  A    between atoms: _372  and  _373
REMARK  146  A    between atoms: _373  and  _374
REMARK  147  A    between atoms: _374  and  _375
REMARK  148  A    between atoms: _375  and  _376
REMARK  149  A    between atoms: _380  and  _382
REMARK  150  A    between atoms: _382  and  _383
REMARK  151  A    between atoms: _382  and  _385
REMARK  152  A    between atoms: _385  and  _386
REMARK  153  A    between atoms: _389  and  _391
REMARK  154  A    between atoms: _391  and  _392
REMARK  155  A    between atoms: _391  and  _394
REMARK  156  A    between atoms: _394  and  _395
REMARK  157  A    between atoms: _400  and  _402
REMARK  158  A    between atoms: _402  and  _403
REMARK  159  A    between atoms: _405  and  _407
REMARK  160  A    between atoms: _407  and  _408
REMARK  161  A    between atoms: _407  and  _410
REMARK  162  A    between atoms: _410  and  _411
REMARK  163  A    between atoms: _414  and  _416
REMARK  164  A    between atoms: _416  and  _417
REMARK  165  A    between atoms: _416  and  _419
REMARK  166  A    between atoms: _419  and  _420
REMARK  167  A    between atoms: _420  and  _421
REMARK  168  A    between atoms: _421  and  _422
REMARK  169  A    between atoms: _422  and  _423
REMARK  170  A    between atoms: _427  and  _429
REMARK  171  A    between atoms: _429  and  _430
REMARK  172  A    between atoms: _429  and  _432
REMARK  173  A    between atoms: _432  and  _433
REMARK  174  A    between atoms: _433  and  _434
REMARK  175  A    between atoms: _434  and  _435
REMARK  176  A    between atoms: _444  and  _446
REMARK  177  A    between atoms: _446  and  _447
REMARK  178  A    between atoms: _446  and  _449
REMARK  179  A    between atoms: _449  and  _450
REMARK  180  A    between atoms: _455  and  _457
REMARK  181  A    between atoms: _457  and  _458
REMARK  182  A    between atoms: _457  and  _460
REMARK  183  A    between atoms: _460  and  _461
REMARK  184  A    between atoms: _466  and  _467
REMARK  185  A    between atoms: _469  and  _471
REMARK  186  A    between atoms: _471  and  _472
REMARK  187  A    between atoms: _471  and  _474
REMARK  188  A    between atoms: _474  and  _475
REMARK  189  A    between atoms: _475  and  _476
REMARK  190  A    between atoms: _476  and  _477
REMARK  191  A    between atoms: _477  and  _478
REMARK  192  A    between atoms: _482  and  _484
REMARK  193  A    between atoms: _484  and  _485
REMARK  194  A    between atoms: _484  and  _487
REMARK  195  A    between atoms: _487  and  _488
REMARK  196  A    between atoms: _490  and  _492
REMARK  197  A    between atoms: _492  and  _493
REMARK  198  A    between atoms: _492  and  _495
REMARK  199  A    between atoms: _495  and  _496
REMARK  200  A    between atoms: _499  and  _501
REMARK  201  A    between atoms: _501  and  _502
REMARK  202  A    between atoms: _501  and  _504
REMARK  203  A    between atoms: _504  and  _505
REMARK  204  A    between atoms: _505  and  _506
REMARK  205  A    between atoms: _509  and  _511
REMARK  206  A    between atoms: _511  and  _512
REMARK  207  A    between atoms: _515  and  _517
REMARK  208  A    between atoms: _517  and  _518
REMARK  209  A    between atoms: _517  and  _520
REMARK  210  A    between atoms: _520  and  _521
REMARK  211  A    between atoms: _523  and  _525
REMARK  212  A    between atoms: _525  and  _526
REMARK  213  A    between atoms: _528  and  _530
REMARK  214  A    between atoms: _530  and  _531
REMARK  215  A    between atoms: _530  and  _533
REMARK  216  A    between atoms: _533  and  _534
REMARK  217  A    between atoms: _537  and  _539
REMARK  218  A    between atoms: _539  and  _540
REMARK  219  A    between atoms: _542  and  _544
REMARK  220  A    between atoms: _544  and  _545
REMARK  221  A    between atoms: _544  and  _547
REMARK  222  A    between atoms: _547  and  _548
REMARK  223  A    between atoms: _553  and  _555
REMARK  224  A    between atoms: _555  and  _556
REMARK  225  A    between atoms: _555  and  _558
REMARK  226  A    between atoms: _558  and  _559
REMARK  227  A    between atoms: _559  and  _560
REMARK  228  A    between atoms: _567  and  _568
REMARK  229  A    between atoms: _568  and  _584
REMARK  230  A    between atoms: _569  and  _571
REMARK  231  A    between atoms: _571  and  _572
REMARK  232  A    between atoms: _572  and  _573
REMARK  233  A    between atoms: _577  and  _579
REMARK  234  A    between atoms: _579  and  _580
REMARK  235  A    between atoms: _579  and  _587
REMARK  236  A    between atoms: _580  and  _581
REMARK  237  A    between atoms: _581  and  _582
REMARK  238  A    between atoms: _582  and  _583
REMARK  239  A    between atoms: _583  and  _584
REMARK  240  A    between atoms: _589  and  _591
REMARK  241  A    between atoms: _591  and  _592
REMARK  242  A    between atoms: _591  and  _594
REMARK  243  A    between atoms: _594  and  _595
REMARK  244  A    between atoms: _598  and  _600
REMARK  245  A    between atoms: _600  and  _601
REMARK  246  A    between atoms: _603  and  _605
REMARK  247  A    between atoms: _605  and  _606
REMARK  248  A    between atoms: _609  and  _611
REMARK  249  A    between atoms: _611  and  _612
REMARK  250  A    between atoms: _611  and  _614
REMARK  251  A    between atoms: _614  and  _615
REMARK  252  A    between atoms: _618  and  _620
REMARK  253  A    between atoms: _620  and  _621
REMARK  254  A    between atoms: _620  and  _623
REMARK  255  A    between atoms: _623  and  _624
REMARK  256  A    between atoms: _629  and  _630
REMARK                            x       y       z     vdW  Elec       q    Type
REMARK                         _______ _______ _______ _____ _____    ______ ____
ROOT
ATOM      1  O   HOH     1      38.954  22.752  19.768  0.00  0.00    +0.000 OA
ENDROOT
TORSDOF 0
REMARK  Name = ../refined-set-2016/3syr/3syr_pocket.pdb
REMARK  256 active torsions:
REMARK  status: ('A' for Active; 'I' for Inactive)
REMARK    1  A    between atoms: _1  and  _3
REMARK    2  A    between atoms: _3  and  _4
REMARK    3  A    between atoms: _3  and  _6
REMARK    4  A    between atoms: _6  and  _7
REMARK    5  A    between atoms: _12  and  _13
REMARK    6  A    between atoms: _15  and  _17
REMARK    7  A    between atoms: _17  and  _18
REMARK    8  A    between atoms: _17  and  _20
REMARK    9  A    between atoms: _20  and  _21
REMARK   10  A    between atoms: _21  and  _22
REMARK   11  A    between atoms: _25  and  _27
REMARK   12  A    between atoms: _27  and  _28
REMARK   13  A    between atoms: _27  and  _30
REMARK   14  A    between atoms: _30  and  _31
REMARK   15  A    between atoms: _36  and  _37
REMARK   16  A    between atoms: _39  and  _41
REMARK   17  A    between atoms: _41  and  _42
REMARK   18  A    between atoms: _41  and  _44
REMARK   19  A    between atoms: _44  and  _45
REMARK   20  A    between atoms: _50  and  _52
REMARK   21  A    between atoms: _52  and  _53
REMARK   22  A    between atoms: _55  and  _57
REMARK   23  A    between atoms: _57  and  _58
REMARK   24  A    between atoms: _60  and  _62
REMARK   25  A    between atoms: _62  and  _63
REMARK   26  A    between atoms: _62  and  _65
REMARK   27  A    between atoms: _65  and  _66
REMARK   28  A    between atoms: _69  and  _71
REMARK   29  A    between atoms: _71  and  _72
REMARK   30  A    between atoms: _74  and  _76
REMARK   31  A    between atoms: _76  and  _77
REMARK   32  A    between atoms: _76  and  _79
REMARK   33  A    between atoms: _79  and  _80
REMARK   34  A    between atoms: _80  and  _81
REMARK   35  A    between atoms: _81  and  _82
REMARK   36  A    between atoms: _91  and  _93
REMARK   37  A    between atoms: _93  and  _94
REMARK   38  A    between atoms: _93  and  _96
REMARK   39  A    between atoms: _96  and  _97
REMARK   40  A    between atoms: _100  and  _102
REMARK   41  A    between atoms: _102  and  _103
REMARK   42  A    between atoms: _106  and  _108
REMARK   43  A    between atoms: _108  and  _109
REMARK   44  A    between atoms: _108  and  _111
REMARK   45  A    between atoms: _111  and  _112
REMARK   46  A    between atoms: _118  and  _120
REMARK   47  A    between atoms: _120  and  _121
REMARK   48  A    between atoms: _120  and  _123
REMARK   49  A    between atoms: _123  and  _124
REMARK   50  A    between atoms: _129  and  _131
REMARK   51  A    between atoms: _131  and  _132
REMARK   52  A    between atoms: _131  and  _134
REMARK   53  A    between atoms: _134  and  _135
REMARK   54  A    between atoms: _138  and  _140
REMARK   55  A    between atoms: _140  and  _141
REMARK   56  A    between atoms: _140  and  _143
REMARK   57  A    between atoms: _143  and  _144
REMARK   58  A    between atoms: _149  and  _151
REMARK   59  A    between atoms: _151  and  _152
REMARK   60  A    between atoms: _151  and  _154
REMARK   61  A    between atoms: _154  and  _155
REMARK   62  A    between atoms: _161  and  _163
REMARK   63  A    between atoms: _163  and  _164
REMARK   64  A    between atoms: _163  and  _166
REMARK   65  A    between atoms: _166  and  _167
REMARK   66  A    between atoms: _173  and  _175
REMARK   67  A    between atoms: _175  and  _176
REMARK   68  A    between atoms: _175  and  _178
REMARK   69  A    between atoms: _178  and  _179
REMARK   70  A    between atoms: _179  and  _180
REMARK   71  A    between atoms: _180  and  _181
REMARK   72  A    between atoms: _190  and  _192
REMARK   73  A    between atoms: _192  and  _193
REMARK   74  A    between atoms: _192  and  _195
REMARK   75  A    between atoms: _195  and  _196
REMARK   76  A    between atoms: _201  and  _203
REMARK   77  A    between atoms: _203  and  _204
REMARK   78  A    between atoms: _203  and  _206
REMARK   79  A    between atoms: _206  and  _207
REMARK   80  A    between atoms: _210  and  _212
REMARK   81  A    between atoms: _212  and  _213
REMARK   82  A    between atoms: _212  and  _215
REMARK   83  A    between atoms: _215  and  _216
REMARK   84  A    between atoms: _219  and  _221
REMARK   85  A    between atoms: _221  and  _222
REMARK   86  A    between atoms: _221  and  _224
REMARK   87  A    between atoms: _224  and  _225
REMARK   88  A    between atoms: _230  and  _232
REMARK   89  A    between atoms: _232  and  _233
REMARK   90  A    between atoms: _232  and  _235
REMARK   91  A    between atoms: _235  and  _236
REMARK   92  A    between atoms: _241  and  _242
REMARK   93  A    between atoms: _244  and  _246
REMARK   94  A    between atoms: _246  and  _247
REMARK   95  A    between atoms: _246  and  _249
REMARK   96  A    between atoms: _249  and  _250
REMARK   97  A    between atoms: _253  and  _255
REMARK   98  A    between atoms: _255  and  _256
REMARK   99  A    between atoms: _255  and  _258
REMARK  100  A    between atoms: _258  and  _259
REMARK  101  A    between atoms: _264  and  _266
REMARK  102  A    between atoms: _266  and  _267
REMARK  103  A    between atoms: _266  and  _269
REMARK  104  A    between atoms: _269  and  _270
REMARK  105  A    between atoms: _275  and  _277
REMARK  106  A    between atoms: _277  and  _278
REMARK  107  A    between atoms: _277  and  _280
REMARK  108  A    between atoms: _280  and  _281
REMARK  109  A    between atoms: _284  and  _286
REMARK  110  A    between atoms: _286  and  _287
REMARK  111  A    between atoms: _286  and  _289
REMARK  112  A    between atoms: _292  and  _294
REMARK  113  A    between atoms: _294  and  _295
REMARK  114  A    between atoms: _294  and  _297
REMARK  115  A    between atoms: _297  and  _298
REMARK  116  A    between atoms: _301  and  _303
REMARK  117  A    between atoms: _303  and  _304
REMARK  118  A    between atoms: _307  and  _309
REMARK  119  A    between atoms: _309  and  _310
REMARK  120  A    between atoms: _309  and  _312
REMARK  121  A    between atoms: _312  and  _313
REMARK  122  A    between atoms: _316  and  _318
REMARK  123  A    between atoms: _318  and  _319
REMARK  124  A    between atoms: _318  and  _321
REMARK  125  A    between atoms: _321  and  _322
REMARK  126  A    between atoms: _322  and  _323
REMARK  127  A    between atoms: _326  and  _328
REMARK  128  A    between atoms: _328  and  _329
REMARK  129  A    between atoms: _328  and  _331
REMARK  130  A    between atoms: _331  and  _332
REMARK  131  A    between atoms: _337  and  _339
REMARK  132  A    between atoms: _339  and  _340
REMARK  133  A    between atoms: _342  and  _344
REMARK  134  A    between atoms: _344  and  _345
REMARK  135  A    between atoms: _344  and  _347
REMARK  136  A    between atoms: _350  and  _352
REMARK  137  A    between atoms: _352  and  _353
REMARK  138  A    between atoms: _356  and  _358
REMARK  139  A    between atoms: _358  and  _359
REMARK  140  A    between atoms: _358  and  _361
REMARK  141  A    between atoms: _361  and  _362
REMARK  142  A    between atoms: _367  and  _369
REMARK  143  A    between atoms: _369  and  _370
REMARK  144  A    between atoms: _369  and  _372
REMARK  145  A    between atoms: _372  and  _373
REMARK  146  A    between atoms: _373  and  _374
REMARK  147  A    between atoms: _374  and  _375
REMARK  148  A    between atoms: _375  and  _376
REMARK  149  A    between atoms: _380  and  _382
REMARK  150  A    between atoms: _382  and  _383
REMARK  151  A    between atoms: _382  and  _385
REMARK  152  A    between atoms: _385  and  _386
REMARK  153  A    between atoms: _389  and  _391
REMARK  154  A    between atoms: _391  and  _392
REMARK  155  A    between atoms: _391  and  _394
REMARK  156  A    between atoms: _394  and  _395
REMARK  157  A    between atoms: _400  and  _402
REMARK  158  A    between atoms: _402  and  _403
REMARK  159  A    between atoms: _405  and  _407
REMARK  160  A    between atoms: _407  and  _408
REMARK  161  A    between atoms: _407  and  _410
REMARK  162  A    between atoms: _410  and  _411
REMARK  163  A    between atoms: _414  and  _416
REMARK  164  A    between atoms: _416  and  _417
REMARK  165  A    between atoms: _416  and  _419
REMARK  166  A    between atoms: _419  and  _420
REMARK  167  A    between atoms: _420  and  _421
REMARK  168  A    between atoms: _421  and  _422
REMARK  169  A    between atoms: _422  and  _423
REMARK  170  A    between atoms: _427  and  _429
REMARK  171  A    between atoms: _429  and  _430
REMARK  172  A    between atoms: _429  and  _432
REMARK  173  A    between atoms: _432  and  _433
REMARK  174  A    between atoms: _433  and  _434
REMARK  175  A    between atoms: _434  and  _435
REMARK  176  A    between atoms: _444  and  _446
REMARK  177  A    between atoms: _446  and  _447
REMARK  178  A    between atoms: _446  and  _449
REMARK  179  A    between atoms: _449  and  _450
REMARK  180  A    between atoms: _455  and  _457
REMARK  181  A    between atoms: _457  and  _458
REMARK  182  A    between atoms: _457  and  _460
REMARK  183  A    between atoms: _460  and  _461
REMARK  184  A    between atoms: _466  and  _467
REMARK  185  A    between atoms: _469  and  _471
REMARK  186  A    between atoms: _471  and  _472
REMARK  187  A    between atoms: _471  and  _474
REMARK  188  A    between atoms: _474  and  _475
REMARK  189  A    between atoms: _475  and  _476
REMARK  190  A    between atoms: _476  and  _477
REMARK  191  A    between atoms: _477  and  _478
REMARK  192  A    between atoms: _482  and  _484
REMARK  193  A    between atoms: _484  and  _485
REMARK  194  A    between atoms: _484  and  _487
REMARK  195  A    between atoms: _487  and  _488
REMARK  196  A    between atoms: _490  and  _492
REMARK  197  A    between atoms: _492  and  _493
REMARK  198  A    between atoms: _492  and  _495
REMARK  199  A    between atoms: _495  and  _496
REMARK  200  A    between atoms: _499  and  _501
REMARK  201  A    between atoms: _501  and  _502
REMARK  202  A    between atoms: _501  and  _504
REMARK  203  A    between atoms: _504  and  _505
REMARK  204  A    between atoms: _505  and  _506
REMARK  205  A    between atoms: _509  and  _511
REMARK  206  A    between atoms: _511  and  _512
REMARK  207  A    between atoms: _515  and  _517
REMARK  208  A    between atoms: _517  and  _518
REMARK  209  A    between atoms: _517  and  _520
REMARK  210  A    between atoms: _520  and  _521
REMARK  211  A    between atoms: _523  and  _525
REMARK  212  A    between atoms: _525  and  _526
REMARK  213  A    between atoms: _528  and  _530
REMARK  214  A    between atoms: _530  and  _531
REMARK  215  A    between atoms: _530  and  _533
REMARK  216  A    between atoms: _533  and  _534
REMARK  217  A    between atoms: _537  and  _539
REMARK  218  A    between atoms: _539  and  _540
REMARK  219  A    between atoms: _542  and  _544
REMARK  220  A    between atoms: _544  and  _545
REMARK  221  A    between atoms: _544  and  _547
REMARK  222  A    between atoms: _547  and  _548
REMARK  223  A    between atoms: _553  and  _555
REMARK  224  A    between atoms: _555  and  _556
REMARK  225  A    between atoms: _555  and  _558
REMARK  226  A    between atoms: _558  and  _559
REMARK  227  A    between atoms: _559  and  _560
REMARK  228  A    between atoms: _567  and  _568
REMARK  229  A    between atoms: _568  and  _584
REMARK  230  A    between atoms: _569  and  _571
REMARK  231  A    between atoms: _571  and  _572
REMARK  232  A    between atoms: _572  and  _573
REMARK  233  A    between atoms: _577  and  _579
REMARK  234  A    between atoms: _579  and  _580
REMARK  235  A    between atoms: _579  and  _587
REMARK  236  A    between atoms: _580  and  _581
REMARK  237  A    between atoms: _581  and  _582
REMARK  238  A    between atoms: _582  and  _583
REMARK  239  A    between atoms: _583  and  _584
REMARK  240  A    between atoms: _589  and  _591
REMARK  241  A    between atoms: _591  and  _592
REMARK  242  A    between atoms: _591  and  _594
REMARK  243  A    between atoms: _594  and  _595
REMARK  244  A    between atoms: _598  and  _600
REMARK  245  A    between atoms: _600  and  _601
REMARK  246  A    between atoms: _603  and  _605
REMARK  247  A    between atoms: _605  and  _606
REMARK  248  A    between atoms: _609  and  _611
REMARK  249  A    between atoms: _611  and  _612
REMARK  250  A    between atoms: _611  and  _614
REMARK  251  A    between atoms: _614  and  _615
REMARK  252  A    between atoms: _618  and  _620
REMARK  253  A    between atoms: _620  and  _621
REMARK  254  A    between atoms: _620  and  _623
REMARK  255  A    between atoms: _623  and  _624
REMARK  256  A    between atoms: _629  and  _630
REMARK                            x       y       z     vdW  Elec       q    Type
REMARK                         _______ _______ _______ _____ _____    ______ ____
ROOT
ATOM      1  O   HOH     1      42.905  20.563  30.230  0.00  0.00    +0.000 OA
ENDROOT
TORSDOF 0
REMARK  Name = ../refined-set-2016/3syr/3syr_pocket.pdb
REMARK  256 active torsions:
REMARK  status: ('A' for Active; 'I' for Inactive)
REMARK    1  A    between atoms: _1  and  _3
REMARK    2  A    between atoms: _3  and  _4
REMARK    3  A    between atoms: _3  and  _6
REMARK    4  A    between atoms: _6  and  _7
REMARK    5  A    between atoms: _12  and  _13
REMARK    6  A    between atoms: _15  and  _17
REMARK    7  A    between atoms: _17  and  _18
REMARK    8  A    between atoms: _17  and  _20
REMARK    9  A    between atoms: _20  and  _21
REMARK   10  A    between atoms: _21  and  _22
REMARK   11  A    between atoms: _25  and  _27
REMARK   12  A    between atoms: _27  and  _28
REMARK   13  A    between atoms: _27  and  _30
REMARK   14  A    between atoms: _30  and  _31
REMARK   15  A    between atoms: _36  and  _37
REMARK   16  A    between atoms: _39  and  _41
REMARK   17  A    between atoms: _41  and  _42
REMARK   18  A    between atoms: _41  and  _44
REMARK   19  A    between atoms: _44  and  _45
REMARK   20  A    between atoms: _50  and  _52
REMARK   21  A    between atoms: _52  and  _53
REMARK   22  A    between atoms: _55  and  _57
REMARK   23  A    between atoms: _57  and  _58
REMARK   24  A    between atoms: _60  and  _62
REMARK   25  A    between atoms: _62  and  _63
REMARK   26  A    between atoms: _62  and  _65
REMARK   27  A    between atoms: _65  and  _66
REMARK   28  A    between atoms: _69  and  _71
REMARK   29  A    between atoms: _71  and  _72
REMARK   30  A    between atoms: _74  and  _76
REMARK   31  A    between atoms: _76  and  _77
REMARK   32  A    between atoms: _76  and  _79
REMARK   33  A    between atoms: _79  and  _80
REMARK   34  A    between atoms: _80  and  _81
REMARK   35  A    between atoms: _81  and  _82
REMARK   36  A    between atoms: _91  and  _93
REMARK   37  A    between atoms: _93  and  _94
REMARK   38  A    between atoms: _93  and  _96
REMARK   39  A    between atoms: _96  and  _97
REMARK   40  A    between atoms: _100  and  _102
REMARK   41  A    between atoms: _102  and  _103
REMARK   42  A    between atoms: _106  and  _108
REMARK   43  A    between atoms: _108  and  _109
REMARK   44  A    between atoms: _108  and  _111
REMARK   45  A    between atoms: _111  and  _112
REMARK   46  A    between atoms: _118  and  _120
REMARK   47  A    between atoms: _120  and  _121
REMARK   48  A    between atoms: _120  and  _123
REMARK   49  A    between atoms: _123  and  _124
REMARK   50  A    between atoms: _129  and  _131
REMARK   51  A    between atoms: _131  and  _132
REMARK   52  A    between atoms: _131  and  _134
REMARK   53  A    between atoms: _134  and  _135
REMARK   54  A    between atoms: _138  and  _140
REMARK   55  A    between atoms: _140  and  _141
REMARK   56  A    between atoms: _140  and  _143
REMARK   57  A    between atoms: _143  and  _144
REMARK   58  A    between atoms: _149  and  _151
REMARK   59  A    between atoms: _151  and  _152
REMARK   60  A    between atoms: _151  and  _154
REMARK   61  A    between atoms: _154  and  _155
REMARK   62  A    between atoms: _161  and  _163
REMARK   63  A    between atoms: _163  and  _164
REMARK   64  A    between atoms: _163  and  _166
REMARK   65  A    between atoms: _166  and  _167
REMARK   66  A    between atoms: _173  and  _175
REMARK   67  A    between atoms: _175  and  _176
REMARK   68  A    between atoms: _175  and  _178
REMARK   69  A    between atoms: _178  and  _179
REMARK   70  A    between atoms: _179  and  _180
REMARK   71  A    between atoms: _180  and  _181
REMARK   72  A    between atoms: _190  and  _192
REMARK   73  A    between atoms: _192  and  _193
REMARK   74  A    between atoms: _192  and  _195
REMARK   75  A    between atoms: _195  and  _196
REMARK   76  A    between atoms: _201  and  _203
REMARK   77  A    between atoms: _203  and  _204
REMARK   78  A    between atoms: _203  and  _206
REMARK   79  A    between atoms: _206  and  _207
REMARK   80  A    between atoms: _210  and  _212
REMARK   81  A    between atoms: _212  and  _213
REMARK   82  A    between atoms: _212  and  _215
REMARK   83  A    between atoms: _215  and  _216
REMARK   84  A    between atoms: _219  and  _221
REMARK   85  A    between atoms: _221  and  _222
REMARK   86  A    between atoms: _221  and  _224
REMARK   87  A    between atoms: _224  and  _225
REMARK   88  A    between atoms: _230  and  _232
REMARK   89  A    between atoms: _232  and  _233
REMARK   90  A    between atoms: _232  and  _235
REMARK   91  A    between atoms: _235  and  _236
REMARK   92  A    between atoms: _241  and  _242
REMARK   93  A    between atoms: _244  and  _246
REMARK   94  A    between atoms: _246  and  _247
REMARK   95  A    between atoms: _246  and  _249
REMARK   96  A    between atoms: _249  and  _250
REMARK   97  A    between atoms: _253  and  _255
REMARK   98  A    between atoms: _255  and  _256
REMARK   99  A    between atoms: _255  and  _258
REMARK  100  A    between atoms: _258  and  _259
REMARK  101  A    between atoms: _264  and  _266
REMARK  102  A    between atoms: _266  and  _267
REMARK  103  A    between atoms: _266  and  _269
REMARK  104  A    between atoms: _269  and  _270
REMARK  105  A    between atoms: _275  and  _277
REMARK  106  A    between atoms: _277  and  _278
REMARK  107  A    between atoms: _277  and  _280
REMARK  108  A    between atoms: _280  and  _281
REMARK  109  A    between atoms: _284  and  _286
REMARK  110  A    between atoms: _286  and  _287
REMARK  111  A    between atoms: _286  and  _289
REMARK  112  A    between atoms: _292  and  _294
REMARK  113  A    between atoms: _294  and  _295
REMARK  114  A    between atoms: _294  and  _297
REMARK  115  A    between atoms: _297  and  _298
REMARK  116  A    between atoms: _301  and  _303
REMARK  117  A    between atoms: _303  and  _304
REMARK  118  A    between atoms: _307  and  _309
REMARK  119  A    between atoms: _309  and  _310
REMARK  120  A    between atoms: _309  and  _312
REMARK  121  A    between atoms: _312  and  _313
REMARK  122  A    between atoms: _316  and  _318
REMARK  123  A    between atoms: _318  and  _319
REMARK  124  A    between atoms: _318  and  _321
REMARK  125  A    between atoms: _321  and  _322
REMARK  126  A    between atoms: _322  and  _323
REMARK  127  A    between atoms: _326  and  _328
REMARK  128  A    between atoms: _328  and  _329
REMARK  129  A    between atoms: _328  and  _331
REMARK  130  A    between atoms: _331  and  _332
REMARK  131  A    between atoms: _337  and  _339
REMARK  132  A    between atoms: _339  and  _340
REMARK  133  A    between atoms: _342  and  _344
REMARK  134  A    between atoms: _344  and  _345
REMARK  135  A    between atoms: _344  and  _347
REMARK  136  A    between atoms: _350  and  _352
REMARK  137  A    between atoms: _352  and  _353
REMARK  138  A    between atoms: _356  and  _358
REMARK  139  A    between atoms: _358  and  _359
REMARK  140  A    between atoms: _358  and  _361
REMARK  141  A    between atoms: _361  and  _362
REMARK  142  A    between atoms: _367  and  _369
REMARK  143  A    between atoms: _369  and  _370
REMARK  144  A    between atoms: _369  and  _372
REMARK  145  A    between atoms: _372  and  _373
REMARK  146  A    between atoms: _373  and  _374
REMARK  147  A    between atoms: _374  and  _375
REMARK  148  A    between atoms: _375  and  _376
REMARK  149  A    between atoms: _380  and  _382
REMARK  150  A    between atoms: _382  and  _383
REMARK  151  A    between atoms: _382  and  _385
REMARK  152  A    between atoms: _385  and  _386
REMARK  153  A    between atoms: _389  and  _391
REMARK  154  A    between atoms: _391  and  _392
REMARK  155  A    between atoms: _391  and  _394
REMARK  156  A    between atoms: _394  and  _395
REMARK  157  A    between atoms: _400  and  _402
REMARK  158  A    between atoms: _402  and  _403
REMARK  159  A    between atoms: _405  and  _407
REMARK  160  A    between atoms: _407  and  _408
REMARK  161  A    between atoms: _407  and  _410
REMARK  162  A    between atoms: _410  and  _411
REMARK  163  A    between atoms: _414  and  _416
REMARK  164  A    between atoms: _416  and  _417
REMARK  165  A    between atoms: _416  and  _419
REMARK  166  A    between atoms: _419  and  _420
REMARK  167  A    between atoms: _420  and  _421
REMARK  168  A    between atoms: _421  and  _422
REMARK  169  A    between atoms: _422  and  _423
REMARK  170  A    between atoms: _427  and  _429
REMARK  171  A    between atoms: _429  and  _430
REMARK  172  A    between atoms: _429  and  _432
REMARK  173  A    between atoms: _432  and  _433
REMARK  174  A    between atoms: _433  and  _434
REMARK  175  A    between atoms: _434  and  _435
REMARK  176  A    between atoms: _444  and  _446
REMARK  177  A    between atoms: _446  and  _447
REMARK  178  A    between atoms: _446  and  _449
REMARK  179  A    between atoms: _449  and  _450
REMARK  180  A    between atoms: _455  and  _457
REMARK  181  A    between atoms: _457  and  _458
REMARK  182  A    between atoms: _457  and  _460
REMARK  183  A    between atoms: _460  and  _461
REMARK  184  A    between atoms: _466  and  _467
REMARK  185  A    between atoms: _469  and  _471
REMARK  186  A    between atoms: _471  and  _472
REMARK  187  A    between atoms: _471  and  _474
REMARK  188  A    between atoms: _474  and  _475
REMARK  189  A    between atoms: _475  and  _476
REMARK  190  A    between atoms: _476  and  _477
REMARK  191  A    between atoms: _477  and  _478
REMARK  192  A    between atoms: _482  and  _484
REMARK  193  A    between atoms: _484  and  _485
REMARK  194  A    between atoms: _484  and  _487
REMARK  195  A    between atoms: _487  and  _488
REMARK  196  A    between atoms: _490  and  _492
REMARK  197  A    between atoms: _492  and  _493
REMARK  198  A    between atoms: _492  and  _495
REMARK  199  A    between atoms: _495  and  _496
REMARK  200  A    between atoms: _499  and  _501
REMARK  201  A    between atoms: _501  and  _502
REMARK  202  A    between atoms: _501  and  _504
REMARK  203  A    between atoms: _504  and  _505
REMARK  204  A    between atoms: _505  and  _506
REMARK  205  A    between atoms: _509  and  _511
REMARK  206  A    between atoms: _511  and  _512
REMARK  207  A    between atoms: _515  and  _517
REMARK  208  A    between atoms: _517  and  _518
REMARK  209  A    between atoms: _517  and  _520
REMARK  210  A    between atoms: _520  and  _521
REMARK  211  A    between atoms: _523  and  _525
REMARK  212  A    between atoms: _525  and  _526
REMARK  213  A    between atoms: _528  and  _530
REMARK  214  A    between atoms: _530  and  _531
REMARK  215  A    between atoms: _530  and  _533
REMARK  216  A    between atoms: _533  and  _534
REMARK  217  A    between atoms: _537  and  _539
REMARK  218  A    between atoms: _539  and  _540
REMARK  219  A    between atoms: _542  and  _544
REMARK  220  A    between atoms: _544  and  _545
REMARK  221  A    between atoms: _544  and  _547
REMARK  222  A    between atoms: _547  and  _548
REMARK  223  A    between atoms: _553  and  _555
REMARK  224  A    between atoms: _555  and  _556
REMARK  225  A    between atoms: _555  and  _558
REMARK  226  A    between atoms: _558  and  _559
REMARK  227  A    between atoms: _559  and  _560
REMARK  228  A    between atoms: _567  and  _568
REMARK  229  A    between atoms: _568  and  _584
REMARK  230  A    between atoms: _569  and  _571
REMARK  231  A    between atoms: _571  and  _572
REMARK  232  A    between atoms: _572  and  _573
REMARK  233  A    between atoms: _577  and  _579
REMARK  234  A    between atoms: _579  and  _580
REMARK  235  A    between atoms: _579  and  _587
REMARK  236  A    between atoms: _580  and  _581
REMARK  237  A    between atoms: _581  and  _582
REMARK  238  A    between atoms: _582  and  _583
REMARK  239  A    between atoms: _583  and  _584
REMARK  240  A    between atoms: _589  and  _591
REMARK  241  A    between atoms: _591  and  _592
REMARK  242  A    between atoms: _591  and  _594
REMARK  243  A    between atoms: _594  and  _595
REMARK  244  A    between atoms: _598  and  _600
REMARK  245  A    between atoms: _600  and  _601
REMARK  246  A    between atoms: _603  and  _605
REMARK  247  A    between atoms: _605  and  _606
REMARK  248  A    between atoms: _609  and  _611
REMARK  249  A    between atoms: _611  and  _612
REMARK  250  A    between atoms: _611  and  _614
REMARK  251  A    between atoms: _614  and  _615
REMARK  252  A    between atoms: _618  and  _620
REMARK  253  A    between atoms: _620  and  _621
REMARK  254  A    between atoms: _620  and  _623
REMARK  255  A    between atoms: _623  and  _624
REMARK  256  A    between atoms: _629  and  _630
REMARK                            x       y       z     vdW  Elec       q    Type
REMARK                         _______ _______ _______ _____ _____    ______ ____
ROOT
ATOM      1  O   HOH     1      38.778  24.012  22.206  0.00  0.00    +0.000 OA
ENDROOT
TORSDOF 0
REMARK  Name = ../refined-set-2016/3syr/3syr_pocket.pdb
REMARK  256 active torsions:
REMARK  status: ('A' for Active; 'I' for Inactive)
REMARK    1  A    between atoms: _1  and  _3
REMARK    2  A    between atoms: _3  and  _4
REMARK    3  A    between atoms: _3  and  _6
REMARK    4  A    between atoms: _6  and  _7
REMARK    5  A    between atoms: _12  and  _13
REMARK    6  A    between atoms: _15  and  _17
REMARK    7  A    between atoms: _17  and  _18
REMARK    8  A    between atoms: _17  and  _20
REMARK    9  A    between atoms: _20  and  _21
REMARK   10  A    between atoms: _21  and  _22
REMARK   11  A    between atoms: _25  and  _27
REMARK   12  A    between atoms: _27  and  _28
REMARK   13  A    between atoms: _27  and  _30
REMARK   14  A    between atoms: _30  and  _31
REMARK   15  A    between atoms: _36  and  _37
REMARK   16  A    between atoms: _39  and  _41
REMARK   17  A    between atoms: _41  and  _42
REMARK   18  A    between atoms: _41  and  _44
REMARK   19  A    between atoms: _44  and  _45
REMARK   20  A    between atoms: _50  and  _52
REMARK   21  A    between atoms: _52  and  _53
REMARK   22  A    between atoms: _55  and  _57
REMARK   23  A    between atoms: _57  and  _58
REMARK   24  A    between atoms: _60  and  _62
REMARK   25  A    between atoms: _62  and  _63
REMARK   26  A    between atoms: _62  and  _65
REMARK   27  A    between atoms: _65  and  _66
REMARK   28  A    between atoms: _69  and  _71
REMARK   29  A    between atoms: _71  and  _72
REMARK   30  A    between atoms: _74  and  _76
REMARK   31  A    between atoms: _76  and  _77
REMARK   32  A    between atoms: _76  and  _79
REMARK   33  A    between atoms: _79  and  _80
REMARK   34  A    between atoms: _80  and  _81
REMARK   35  A    between atoms: _81  and  _82
REMARK   36  A    between atoms: _91  and  _93
REMARK   37  A    between atoms: _93  and  _94
REMARK   38  A    between atoms: _93  and  _96
REMARK   39  A    between atoms: _96  and  _97
REMARK   40  A    between atoms: _100  and  _102
REMARK   41  A    between atoms: _102  and  _103
REMARK   42  A    between atoms: _106  and  _108
REMARK   43  A    between atoms: _108  and  _109
REMARK   44  A    between atoms: _108  and  _111
REMARK   45  A    between atoms: _111  and  _112
REMARK   46  A    between atoms: _118  and  _120
REMARK   47  A    between atoms: _120  and  _121
REMARK   48  A    between atoms: _120  and  _123
REMARK   49  A    between atoms: _123  and  _124
REMARK   50  A    between atoms: _129  and  _131
REMARK   51  A    between atoms: _131  and  _132
REMARK   52  A    between atoms: _131  and  _134
REMARK   53  A    between atoms: _134  and  _135
REMARK   54  A    between atoms: _138  and  _140
REMARK   55  A    between atoms: _140  and  _141
REMARK   56  A    between atoms: _140  and  _143
REMARK   57  A    between atoms: _143  and  _144
REMARK   58  A    between atoms: _149  and  _151
REMARK   59  A    between atoms: _151  and  _152
REMARK   60  A    between atoms: _151  and  _154
REMARK   61  A    between atoms: _154  and  _155
REMARK   62  A    between atoms: _161  and  _163
REMARK   63  A    between atoms: _163  and  _164
REMARK   64  A    between atoms: _163  and  _166
REMARK   65  A    between atoms: _166  and  _167
REMARK   66  A    between atoms: _173  and  _175
REMARK   67  A    between atoms: _175  and  _176
REMARK   68  A    between atoms: _175  and  _178
REMARK   69  A    between atoms: _178  and  _179
REMARK   70  A    between atoms: _179  and  _180
REMARK   71  A    between atoms: _180  and  _181
REMARK   72  A    between atoms: _190  and  _192
REMARK   73  A    between atoms: _192  and  _193
REMARK   74  A    between atoms: _192  and  _195
REMARK   75  A    between atoms: _195  and  _196
REMARK   76  A    between atoms: _201  and  _203
REMARK   77  A    between atoms: _203  and  _204
REMARK   78  A    between atoms: _203  and  _206
REMARK   79  A    between atoms: _206  and  _207
REMARK   80  A    between atoms: _210  and  _212
REMARK   81  A    between atoms: _212  and  _213
REMARK   82  A    between atoms: _212  and  _215
REMARK   83  A    between atoms: _215  and  _216
REMARK   84  A    between atoms: _219  and  _221
REMARK   85  A    between atoms: _221  and  _222
REMARK   86  A    between atoms: _221  and  _224
REMARK   87  A    between atoms: _224  and  _225
REMARK   88  A    between atoms: _230  and  _232
REMARK   89  A    between atoms: _232  and  _233
REMARK   90  A    between atoms: _232  and  _235
REMARK   91  A    between atoms: _235  and  _236
REMARK   92  A    between atoms: _241  and  _242
REMARK   93  A    between atoms: _244  and  _246
REMARK   94  A    between atoms: _246  and  _247
REMARK   95  A    between atoms: _246  and  _249
REMARK   96  A    between atoms: _249  and  _250
REMARK   97  A    between atoms: _253  and  _255
REMARK   98  A    between atoms: _255  and  _256
REMARK   99  A    between atoms: _255  and  _258
REMARK  100  A    between atoms: _258  and  _259
REMARK  101  A    between atoms: _264  and  _266
REMARK  102  A    between atoms: _266  and  _267
REMARK  103  A    between atoms: _266  and  _269
REMARK  104  A    between atoms: _269  and  _270
REMARK  105  A    between atoms: _275  and  _277
REMARK  106  A    between atoms: _277  and  _278
REMARK  107  A    between atoms: _277  and  _280
REMARK  108  A    between atoms: _280  and  _281
REMARK  109  A    between atoms: _284  and  _286
REMARK  110  A    between atoms: _286  and  _287
REMARK  111  A    between atoms: _286  and  _289
REMARK  112  A    between atoms: _292  and  _294
REMARK  113  A    between atoms: _294  and  _295
REMARK  114  A    between atoms: _294  and  _297
REMARK  115  A    between atoms: _297  and  _298
REMARK  116  A    between atoms: _301  and  _303
REMARK  117  A    between atoms: _303  and  _304
REMARK  118  A    between atoms: _307  and  _309
REMARK  119  A    between atoms: _309  and  _310
REMARK  120  A    between atoms: _309  and  _312
REMARK  121  A    between atoms: _312  and  _313
REMARK  122  A    between atoms: _316  and  _318
REMARK  123  A    between atoms: _318  and  _319
REMARK  124  A    between atoms: _318  and  _321
REMARK  125  A    between atoms: _321  and  _322
REMARK  126  A    between atoms: _322  and  _323
REMARK  127  A    between atoms: _326  and  _328
REMARK  128  A    between atoms: _328  and  _329
REMARK  129  A    between atoms: _328  and  _331
REMARK  130  A    between atoms: _331  and  _332
REMARK  131  A    between atoms: _337  and  _339
REMARK  132  A    between atoms: _339  and  _340
REMARK  133  A    between atoms: _342  and  _344
REMARK  134  A    between atoms: _344  and  _345
REMARK  135  A    between atoms: _344  and  _347
REMARK  136  A    between atoms: _350  and  _352
REMARK  137  A    between atoms: _352  and  _353
REMARK  138  A    between atoms: _356  and  _358
REMARK  139  A    between atoms: _358  and  _359
REMARK  140  A    between atoms: _358  and  _361
REMARK  141  A    between atoms: _361  and  _362
REMARK  142  A    between atoms: _367  and  _369
REMARK  143  A    between atoms: _369  and  _370
REMARK  144  A    between atoms: _369  and  _372
REMARK  145  A    between atoms: _372  and  _373
REMARK  146  A    between atoms: _373  and  _374
REMARK  147  A    between atoms: _374  and  _375
REMARK  148  A    between atoms: _375  and  _376
REMARK  149  A    between atoms: _380  and  _382
REMARK  150  A    between atoms: _382  and  _383
REMARK  151  A    between atoms: _382  and  _385
REMARK  152  A    between atoms: _385  and  _386
REMARK  153  A    between atoms: _389  and  _391
REMARK  154  A    between atoms: _391  and  _392
REMARK  155  A    between atoms: _391  and  _394
REMARK  156  A    between atoms: _394  and  _395
REMARK  157  A    between atoms: _400  and  _402
REMARK  158  A    between atoms: _402  and  _403
REMARK  159  A    between atoms: _405  and  _407
REMARK  160  A    between atoms: _407  and  _408
REMARK  161  A    between atoms: _407  and  _410
REMARK  162  A    between atoms: _410  and  _411
REMARK  163  A    between atoms: _414  and  _416
REMARK  164  A    between atoms: _416  and  _417
REMARK  165  A    between atoms: _416  and  _419
REMARK  166  A    between atoms: _419  and  _420
REMARK  167  A    between atoms: _420  and  _421
REMARK  168  A    between atoms: _421  and  _422
REMARK  169  A    between atoms: _422  and  _423
REMARK  170  A    between atoms: _427  and  _429
REMARK  171  A    between atoms: _429  and  _430
REMARK  172  A    between atoms: _429  and  _432
REMARK  173  A    between atoms: _432  and  _433
REMARK  174  A    between atoms: _433  and  _434
REMARK  175  A    between atoms: _434  and  _435
REMARK  176  A    between atoms: _444  and  _446
REMARK  177  A    between atoms: _446  and  _447
REMARK  178  A    between atoms: _446  and  _449
REMARK  179  A    between atoms: _449  and  _450
REMARK  180  A    between atoms: _455  and  _457
REMARK  181  A    between atoms: _457  and  _458
REMARK  182  A    between atoms: _457  and  _460
REMARK  183  A    between atoms: _460  and  _461
REMARK  184  A    between atoms: _466  and  _467
REMARK  185  A    between atoms: _469  and  _471
REMARK  186  A    between atoms: _471  and  _472
REMARK  187  A    between atoms: _471  and  _474
REMARK  188  A    between atoms: _474  and  _475
REMARK  189  A    between atoms: _475  and  _476
REMARK  190  A    between atoms: _476  and  _477
REMARK  191  A    between atoms: _477  and  _478
REMARK  192  A    between atoms: _482  and  _484
REMARK  193  A    between atoms: _484  and  _485
REMARK  194  A    between atoms: _484  and  _487
REMARK  195  A    between atoms: _487  and  _488
REMARK  196  A    between atoms: _490  and  _492
REMARK  197  A    between atoms: _492  and  _493
REMARK  198  A    between atoms: _492  and  _495
REMARK  199  A    between atoms: _495  and  _496
REMARK  200  A    between atoms: _499  and  _501
REMARK  201  A    between atoms: _501  and  _502
REMARK  202  A    between atoms: _501  and  _504
REMARK  203  A    between atoms: _504  and  _505
REMARK  204  A    between atoms: _505  and  _506
REMARK  205  A    between atoms: _509  and  _511
REMARK  206  A    between atoms: _511  and  _512
REMARK  207  A    between atoms: _515  and  _517
REMARK  208  A    between atoms: _517  and  _518
REMARK  209  A    between atoms: _517  and  _520
REMARK  210  A    between atoms: _520  and  _521
REMARK  211  A    between atoms: _523  and  _525
REMARK  212  A    between atoms: _525  and  _526
REMARK  213  A    between atoms: _528  and  _530
REMARK  214  A    between atoms: _530  and  _531
REMARK  215  A    between atoms: _530  and  _533
REMARK  216  A    between atoms: _533  and  _534
REMARK  217  A    between atoms: _537  and  _539
REMARK  218  A    between atoms: _539  and  _540
REMARK  219  A    between atoms: _542  and  _544
REMARK  220  A    between atoms: _544  and  _545
REMARK  221  A    between atoms: _544  and  _547
REMARK  222  A    between atoms: _547  and  _548
REMARK  223  A    between atoms: _553  and  _555
REMARK  224  A    between atoms: _555  and  _556
REMARK  225  A    between atoms: _555  and  _558
REMARK  226  A    between atoms: _558  and  _559
REMARK  227  A    between atoms: _559  and  _560
REMARK  228  A    between atoms: _567  and  _568
REMARK  229  A    between atoms: _568  and  _584
REMARK  230  A    between atoms: _569  and  _571
REMARK  231  A    between atoms: _571  and  _572
REMARK  232  A    between atoms: _572  and  _573
REMARK  233  A    between atoms: _577  and  _579
REMARK  234  A    between atoms: _579  and  _580
REMARK  235  A    between atoms: _579  and  _587
REMARK  236  A    between atoms: _580  and  _581
REMARK  237  A    between atoms: _581  and  _582
REMARK  238  A    between atoms: _582  and  _583
REMARK  239  A    between atoms: _583  and  _584
REMARK  240  A    between atoms: _589  and  _591
REMARK  241  A    between atoms: _591  and  _592
REMARK  242  A    between atoms: _591  and  _594
REMARK  243  A    between atoms: _594  and  _595
REMARK  244  A    between atoms: _598  and  _600
REMARK  245  A    between atoms: _600  and  _601
REMARK  246  A    between atoms: _603  and  _605
REMARK  247  A    between atoms: _605  and  _606
REMARK  248  A    between atoms: _609  and  _611
REMARK  249  A    between atoms: _611  and  _612
REMARK  250  A    between atoms: _611  and  _614
REMARK  251  A    between atoms: _614  and  _615
REMARK  252  A    between atoms: _618  and  _620
REMARK  253  A    between atoms: _620  and  _621
REMARK  254  A    between atoms: _620  and  _623
REMARK  255  A    between atoms: _623  and  _624
REMARK  256  A    between atoms: _629  and  _630
REMARK                            x       y       z     vdW  Elec       q    Type
REMARK                         _______ _______ _______ _____ _____    ______ ____
ROOT
ATOM      1  O   HOH     1      36.731  22.155  18.062  0.00  0.00    +0.000 OA
ENDROOT
TORSDOF 0
REMARK  Name = ../refined-set-2016/3syr/3syr_pocket.pdb
REMARK  256 active torsions:
REMARK  status: ('A' for Active; 'I' for Inactive)
REMARK    1  A    between atoms: _1  and  _3
REMARK    2  A    between atoms: _3  and  _4
REMARK    3  A    between atoms: _3  and  _6
REMARK    4  A    between atoms: _6  and  _7
REMARK    5  A    between atoms: _12  and  _13
REMARK    6  A    between atoms: _15  and  _17
REMARK    7  A    between atoms: _17  and  _18
REMARK    8  A    between atoms: _17  and  _20
REMARK    9  A    between atoms: _20  and  _21
REMARK   10  A    between atoms: _21  and  _22
REMARK   11  A    between atoms: _25  and  _27
REMARK   12  A    between atoms: _27  and  _28
REMARK   13  A    between atoms: _27  and  _30
REMARK   14  A    between atoms: _30  and  _31
REMARK   15  A    between atoms: _36  and  _37
REMARK   16  A    between atoms: _39  and  _41
REMARK   17  A    between atoms: _41  and  _42
REMARK   18  A    between atoms: _41  and  _44
REMARK   19  A    between atoms: _44  and  _45
REMARK   20  A    between atoms: _50  and  _52
REMARK   21  A    between atoms: _52  and  _53
REMARK   22  A    between atoms: _55  and  _57
REMARK   23  A    between atoms: _57  and  _58
REMARK   24  A    between atoms: _60  and  _62
REMARK   25  A    between atoms: _62  and  _63
REMARK   26  A    between atoms: _62  and  _65
REMARK   27  A    between atoms: _65  and  _66
REMARK   28  A    between atoms: _69  and  _71
REMARK   29  A    between atoms: _71  and  _72
REMARK   30  A    between atoms: _74  and  _76
REMARK   31  A    between atoms: _76  and  _77
REMARK   32  A    between atoms: _76  and  _79
REMARK   33  A    between atoms: _79  and  _80
REMARK   34  A    between atoms: _80  and  _81
REMARK   35  A    between atoms: _81  and  _82
REMARK   36  A    between atoms: _91  and  _93
REMARK   37  A    between atoms: _93  and  _94
REMARK   38  A    between atoms: _93  and  _96
REMARK   39  A    between atoms: _96  and  _97
REMARK   40  A    between atoms: _100  and  _102
REMARK   41  A    between atoms: _102  and  _103
REMARK   42  A    between atoms: _106  and  _108
REMARK   43  A    between atoms: _108  and  _109
REMARK   44  A    between atoms: _108  and  _111
REMARK   45  A    between atoms: _111  and  _112
REMARK   46  A    between atoms: _118  and  _120
REMARK   47  A    between atoms: _120  and  _121
REMARK   48  A    between atoms: _120  and  _123
REMARK   49  A    between atoms: _123  and  _124
REMARK   50  A    between atoms: _129  and  _131
REMARK   51  A    between atoms: _131  and  _132
REMARK   52  A    between atoms: _131  and  _134
REMARK   53  A    between atoms: _134  and  _135
REMARK   54  A    between atoms: _138  and  _140
REMARK   55  A    between atoms: _140  and  _141
REMARK   56  A    between atoms: _140  and  _143
REMARK   57  A    between atoms: _143  and  _144
REMARK   58  A    between atoms: _149  and  _151
REMARK   59  A    between atoms: _151  and  _152
REMARK   60  A    between atoms: _151  and  _154
REMARK   61  A    between atoms: _154  and  _155
REMARK   62  A    between atoms: _161  and  _163
REMARK   63  A    between atoms: _163  and  _164
REMARK   64  A    between atoms: _163  and  _166
REMARK   65  A    between atoms: _166  and  _167
REMARK   66  A    between atoms: _173  and  _175
REMARK   67  A    between atoms: _175  and  _176
REMARK   68  A    between atoms: _175  and  _178
REMARK   69  A    between atoms: _178  and  _179
REMARK   70  A    between atoms: _179  and  _180
REMARK   71  A    between atoms: _180  and  _181
REMARK   72  A    between atoms: _190  and  _192
REMARK   73  A    between atoms: _192  and  _193
REMARK   74  A    between atoms: _192  and  _195
REMARK   75  A    between atoms: _195  and  _196
REMARK   76  A    between atoms: _201  and  _203
REMARK   77  A    between atoms: _203  and  _204
REMARK   78  A    between atoms: _203  and  _206
REMARK   79  A    between atoms: _206  and  _207
REMARK   80  A    between atoms: _210  and  _212
REMARK   81  A    between atoms: _212  and  _213
REMARK   82  A    between atoms: _212  and  _215
REMARK   83  A    between atoms: _215  and  _216
REMARK   84  A    between atoms: _219  and  _221
REMARK   85  A    between atoms: _221  and  _222
REMARK   86  A    between atoms: _221  and  _224
REMARK   87  A    between atoms: _224  and  _225
REMARK   88  A    between atoms: _230  and  _232
REMARK   89  A    between atoms: _232  and  _233
REMARK   90  A    between atoms: _232  and  _235
REMARK   91  A    between atoms: _235  and  _236
REMARK   92  A    between atoms: _241  and  _242
REMARK   93  A    between atoms: _244  and  _246
REMARK   94  A    between atoms: _246  and  _247
REMARK   95  A    between atoms: _246  and  _249
REMARK   96  A    between atoms: _249  and  _250
REMARK   97  A    between atoms: _253  and  _255
REMARK   98  A    between atoms: _255  and  _256
REMARK   99  A    between atoms: _255  and  _258
REMARK  100  A    between atoms: _258  and  _259
REMARK  101  A    between atoms: _264  and  _266
REMARK  102  A    between atoms: _266  and  _267
REMARK  103  A    between atoms: _266  and  _269
REMARK  104  A    between atoms: _269  and  _270
REMARK  105  A    between atoms: _275  and  _277
REMARK  106  A    between atoms: _277  and  _278
REMARK  107  A    between atoms: _277  and  _280
REMARK  108  A    between atoms: _280  and  _281
REMARK  109  A    between atoms: _284  and  _286
REMARK  110  A    between atoms: _286  and  _287
REMARK  111  A    between atoms: _286  and  _289
REMARK  112  A    between atoms: _292  and  _294
REMARK  113  A    between atoms: _294  and  _295
REMARK  114  A    between atoms: _294  and  _297
REMARK  115  A    between atoms: _297  and  _298
REMARK  116  A    between atoms: _301  and  _303
REMARK  117  A    between atoms: _303  and  _304
REMARK  118  A    between atoms: _307  and  _309
REMARK  119  A    between atoms: _309  and  _310
REMARK  120  A    between atoms: _309  and  _312
REMARK  121  A    between atoms: _312  and  _313
REMARK  122  A    between atoms: _316  and  _318
REMARK  123  A    between atoms: _318  and  _319
REMARK  124  A    between atoms: _318  and  _321
REMARK  125  A    between atoms: _321  and  _322
REMARK  126  A    between atoms: _322  and  _323
REMARK  127  A    between atoms: _326  and  _328
REMARK  128  A    between atoms: _328  and  _329
REMARK  129  A    between atoms: _328  and  _331
REMARK  130  A    between atoms: _331  and  _332
REMARK  131  A    between atoms: _337  and  _339
REMARK  132  A    between atoms: _339  and  _340
REMARK  133  A    between atoms: _342  and  _344
REMARK  134  A    between atoms: _344  and  _345
REMARK  135  A    between atoms: _344  and  _347
REMARK  136  A    between atoms: _350  and  _352
REMARK  137  A    between atoms: _352  and  _353
REMARK  138  A    between atoms: _356  and  _358
REMARK  139  A    between atoms: _358  and  _359
REMARK  140  A    between atoms: _358  and  _361
REMARK  141  A    between atoms: _361  and  _362
REMARK  142  A    between atoms: _367  and  _369
REMARK  143  A    between atoms: _369  and  _370
REMARK  144  A    between atoms: _369  and  _372
REMARK  145  A    between atoms: _372  and  _373
REMARK  146  A    between atoms: _373  and  _374
REMARK  147  A    between atoms: _374  and  _375
REMARK  148  A    between atoms: _375  and  _376
REMARK  149  A    between atoms: _380  and  _382
REMARK  150  A    between atoms: _382  and  _383
REMARK  151  A    between atoms: _382  and  _385
REMARK  152  A    between atoms: _385  and  _386
REMARK  153  A    between atoms: _389  and  _391
REMARK  154  A    between atoms: _391  and  _392
REMARK  155  A    between atoms: _391  and  _394
REMARK  156  A    between atoms: _394  and  _395
REMARK  157  A    between atoms: _400  and  _402
REMARK  158  A    between atoms: _402  and  _403
REMARK  159  A    between atoms: _405  and  _407
REMARK  160  A    between atoms: _407  and  _408
REMARK  161  A    between atoms: _407  and  _410
REMARK  162  A    between atoms: _410  and  _411
REMARK  163  A    between atoms: _414  and  _416
REMARK  164  A    between atoms: _416  and  _417
REMARK  165  A    between atoms: _416  and  _419
REMARK  166  A    between atoms: _419  and  _420
REMARK  167  A    between atoms: _420  and  _421
REMARK  168  A    between atoms: _421  and  _422
REMARK  169  A    between atoms: _422  and  _423
REMARK  170  A    between atoms: _427  and  _429
REMARK  171  A    between atoms: _429  and  _430
REMARK  172  A    between atoms: _429  and  _432
REMARK  173  A    between atoms: _432  and  _433
REMARK  174  A    between atoms: _433  and  _434
REMARK  175  A    between atoms: _434  and  _435
REMARK  176  A    between atoms: _444  and  _446
REMARK  177  A    between atoms: _446  and  _447
REMARK  178  A    between atoms: _446  and  _449
REMARK  179  A    between atoms: _449  and  _450
REMARK  180  A    between atoms: _455  and  _457
REMARK  181  A    between atoms: _457  and  _458
REMARK  182  A    between atoms: _457  and  _460
REMARK  183  A    between atoms: _460  and  _461
REMARK  184  A    between atoms: _466  and  _467
REMARK  185  A    between atoms: _469  and  _471
REMARK  186  A    between atoms: _471  and  _472
REMARK  187  A    between atoms: _471  and  _474
REMARK  188  A    between atoms: _474  and  _475
REMARK  189  A    between atoms: _475  and  _476
REMARK  190  A    between atoms: _476  and  _477
REMARK  191  A    between atoms: _477  and  _478
REMARK  192  A    between atoms: _482  and  _484
REMARK  193  A    between atoms: _484  and  _485
REMARK  194  A    between atoms: _484  and  _487
REMARK  195  A    between atoms: _487  and  _488
REMARK  196  A    between atoms: _490  and  _492
REMARK  197  A    between atoms: _492  and  _493
REMARK  198  A    between atoms: _492  and  _495
REMARK  199  A    between atoms: _495  and  _496
REMARK  200  A    between atoms: _499  and  _501
REMARK  201  A    between atoms: _501  and  _502
REMARK  202  A    between atoms: _501  and  _504
REMARK  203  A    between atoms: _504  and  _505
REMARK  204  A    between atoms: _505  and  _506
REMARK  205  A    between atoms: _509  and  _511
REMARK  206  A    between atoms: _511  and  _512
REMARK  207  A    between atoms: _515  and  _517
REMARK  208  A    between atoms: _517  and  _518
REMARK  209  A    between atoms: _517  and  _520
REMARK  210  A    between atoms: _520  and  _521
REMARK  211  A    between atoms: _523  and  _525
REMARK  212  A    between atoms: _525  and  _526
REMARK  213  A    between atoms: _528  and  _530
REMARK  214  A    between atoms: _530  and  _531
REMARK  215  A    between atoms: _530  and  _533
REMARK  216  A    between atoms: _533  and  _534
REMARK  217  A    between atoms: _537  and  _539
REMARK  218  A    between atoms: _539  and  _540
REMARK  219  A    between atoms: _542  and  _544
REMARK  220  A    between atoms: _544  and  _545
REMARK  221  A    between atoms: _544  and  _547
REMARK  222  A    between atoms: _547  and  _548
REMARK  223  A    between atoms: _553  and  _555
REMARK  224  A    between atoms: _555  and  _556
REMARK  225  A    between atoms: _555  and  _558
REMARK  226  A    between atoms: _558  and  _559
REMARK  227  A    between atoms: _559  and  _560
REMARK  228  A    between atoms: _567  and  _568
REMARK  229  A    between atoms: _568  and  _584
REMARK  230  A    between atoms: _569  and  _571
REMARK  231  A    between atoms: _571  and  _572
REMARK  232  A    between atoms: _572  and  _573
REMARK  233  A    between atoms: _577  and  _579
REMARK  234  A    between atoms: _579  and  _580
REMARK  235  A    between atoms: _579  and  _587
REMARK  236  A    between atoms: _580  and  _581
REMARK  237  A    between atoms: _581  and  _582
REMARK  238  A    between atoms: _582  and  _583
REMARK  239  A    between atoms: _583  and  _584
REMARK  240  A    between atoms: _589  and  _591
REMARK  241  A    between atoms: _591  and  _592
REMARK  242  A    between atoms: _591  and  _594
REMARK  243  A    between atoms: _594  and  _595
REMARK  244  A    between atoms: _598  and  _600
REMARK  245  A    between atoms: _600  and  _601
REMARK  246  A    between atoms: _603  and  _605
REMARK  247  A    between atoms: _605  and  _606
REMARK  248  A    between atoms: _609  and  _611
REMARK  249  A    between atoms: _611  and  _612
REMARK  250  A    between atoms: _611  and  _614
REMARK  251  A    between atoms: _614  and  _615
REMARK  252  A    between atoms: _618  and  _620
REMARK  253  A    between atoms: _620  and  _621
REMARK  254  A    between atoms: _620  and  _623
REMARK  255  A    between atoms: _623  and  _624
REMARK  256  A    between atoms: _629  and  _630
REMARK                            x       y       z     vdW  Elec       q    Type
REMARK                         _______ _______ _______ _____ _____    ______ ____
ROOT
ATOM      1  O   HOH     1      25.549  27.860  31.820  0.00  0.00    +0.000 OA
ENDROOT
TORSDOF 0
REMARK  Name = ../refined-set-2016/3syr/3syr_pocket.pdb
REMARK  256 active torsions:
REMARK  status: ('A' for Active; 'I' for Inactive)
REMARK    1  A    between atoms: _1  and  _3
REMARK    2  A    between atoms: _3  and  _4
REMARK    3  A    between atoms: _3  and  _6
REMARK    4  A    between atoms: _6  and  _7
REMARK    5  A    between atoms: _12  and  _13
REMARK    6  A    between atoms: _15  and  _17
REMARK    7  A    between atoms: _17  and  _18
REMARK    8  A    between atoms: _17  and  _20
REMARK    9  A    between atoms: _20  and  _21
REMARK   10  A    between atoms: _21  and  _22
REMARK   11  A    between atoms: _25  and  _27
REMARK   12  A    between atoms: _27  and  _28
REMARK   13  A    between atoms: _27  and  _30
REMARK   14  A    between atoms: _30  and  _31
REMARK   15  A    between atoms: _36  and  _37
REMARK   16  A    between atoms: _39  and  _41
REMARK   17  A    between atoms: _41  and  _42
REMARK   18  A    between atoms: _41  and  _44
REMARK   19  A    between atoms: _44  and  _45
REMARK   20  A    between atoms: _50  and  _52
REMARK   21  A    between atoms: _52  and  _53
REMARK   22  A    between atoms: _55  and  _57
REMARK   23  A    between atoms: _57  and  _58
REMARK   24  A    between atoms: _60  and  _62
REMARK   25  A    between atoms: _62  and  _63
REMARK   26  A    between atoms: _62  and  _65
REMARK   27  A    between atoms: _65  and  _66
REMARK   28  A    between atoms: _69  and  _71
REMARK   29  A    between atoms: _71  and  _72
REMARK   30  A    between atoms: _74  and  _76
REMARK   31  A    between atoms: _76  and  _77
REMARK   32  A    between atoms: _76  and  _79
REMARK   33  A    between atoms: _79  and  _80
REMARK   34  A    between atoms: _80  and  _81
REMARK   35  A    between atoms: _81  and  _82
REMARK   36  A    between atoms: _91  and  _93
REMARK   37  A    between atoms: _93  and  _94
REMARK   38  A    between atoms: _93  and  _96
REMARK   39  A    between atoms: _96  and  _97
REMARK   40  A    between atoms: _100  and  _102
REMARK   41  A    between atoms: _102  and  _103
REMARK   42  A    between atoms: _106  and  _108
REMARK   43  A    between atoms: _108  and  _109
REMARK   44  A    between atoms: _108  and  _111
REMARK   45  A    between atoms: _111  and  _112
REMARK   46  A    between atoms: _118  and  _120
REMARK   47  A    between atoms: _120  and  _121
REMARK   48  A    between atoms: _120  and  _123
REMARK   49  A    between atoms: _123  and  _124
REMARK   50  A    between atoms: _129  and  _131
REMARK   51  A    between atoms: _131  and  _132
REMARK   52  A    between atoms: _131  and  _134
REMARK   53  A    between atoms: _134  and  _135
REMARK   54  A    between atoms: _138  and  _140
REMARK   55  A    between atoms: _140  and  _141
REMARK   56  A    between atoms: _140  and  _143
REMARK   57  A    between atoms: _143  and  _144
REMARK   58  A    between atoms: _149  and  _151
REMARK   59  A    between atoms: _151  and  _152
REMARK   60  A    between atoms: _151  and  _154
REMARK   61  A    between atoms: _154  and  _155
REMARK   62  A    between atoms: _161  and  _163
REMARK   63  A    between atoms: _163  and  _164
REMARK   64  A    between atoms: _163  and  _166
REMARK   65  A    between atoms: _166  and  _167
REMARK   66  A    between atoms: _173  and  _175
REMARK   67  A    between atoms: _175  and  _176
REMARK   68  A    between atoms: _175  and  _178
REMARK   69  A    between atoms: _178  and  _179
REMARK   70  A    between atoms: _179  and  _180
REMARK   71  A    between atoms: _180  and  _181
REMARK   72  A    between atoms: _190  and  _192
REMARK   73  A    between atoms: _192  and  _193
REMARK   74  A    between atoms: _192  and  _195
REMARK   75  A    between atoms: _195  and  _196
REMARK   76  A    between atoms: _201  and  _203
REMARK   77  A    between atoms: _203  and  _204
REMARK   78  A    between atoms: _203  and  _206
REMARK   79  A    between atoms: _206  and  _207
REMARK   80  A    between atoms: _210  and  _212
REMARK   81  A    between atoms: _212  and  _213
REMARK   82  A    between atoms: _212  and  _215
REMARK   83  A    between atoms: _215  and  _216
REMARK   84  A    between atoms: _219  and  _221
REMARK   85  A    between atoms: _221  and  _222
REMARK   86  A    between atoms: _221  and  _224
REMARK   87  A    between atoms: _224  and  _225
REMARK   88  A    between atoms: _230  and  _232
REMARK   89  A    between atoms: _232  and  _233
REMARK   90  A    between atoms: _232  and  _235
REMARK   91  A    between atoms: _235  and  _236
REMARK   92  A    between atoms: _241  and  _242
REMARK   93  A    between atoms: _244  and  _246
REMARK   94  A    between atoms: _246  and  _247
REMARK   95  A    between atoms: _246  and  _249
REMARK   96  A    between atoms: _249  and  _250
REMARK   97  A    between atoms: _253  and  _255
REMARK   98  A    between atoms: _255  and  _256
REMARK   99  A    between atoms: _255  and  _258
REMARK  100  A    between atoms: _258  and  _259
REMARK  101  A    between atoms: _264  and  _266
REMARK  102  A    between atoms: _266  and  _267
REMARK  103  A    between atoms: _266  and  _269
REMARK  104  A    between atoms: _269  and  _270
REMARK  105  A    between atoms: _275  and  _277
REMARK  106  A    between atoms: _277  and  _278
REMARK  107  A    between atoms: _277  and  _280
REMARK  108  A    between atoms: _280  and  _281
REMARK  109  A    between atoms: _284  and  _286
REMARK  110  A    between atoms: _286  and  _287
REMARK  111  A    between atoms: _286  and  _289
REMARK  112  A    between atoms: _292  and  _294
REMARK  113  A    between atoms: _294  and  _295
REMARK  114  A    between atoms: _294  and  _297
REMARK  115  A    between atoms: _297  and  _298
REMARK  116  A    between atoms: _301  and  _303
REMARK  117  A    between atoms: _303  and  _304
REMARK  118  A    between atoms: _307  and  _309
REMARK  119  A    between atoms: _309  and  _310
REMARK  120  A    between atoms: _309  and  _312
REMARK  121  A    between atoms: _312  and  _313
REMARK  122  A    between atoms: _316  and  _318
REMARK  123  A    between atoms: _318  and  _319
REMARK  124  A    between atoms: _318  and  _321
REMARK  125  A    between atoms: _321  and  _322
REMARK  126  A    between atoms: _322  and  _323
REMARK  127  A    between atoms: _326  and  _328
REMARK  128  A    between atoms: _328  and  _329
REMARK  129  A    between atoms: _328  and  _331
REMARK  130  A    between atoms: _331  and  _332
REMARK  131  A    between atoms: _337  and  _339
REMARK  132  A    between atoms: _339  and  _340
REMARK  133  A    between atoms: _342  and  _344
REMARK  134  A    between atoms: _344  and  _345
REMARK  135  A    between atoms: _344  and  _347
REMARK  136  A    between atoms: _350  and  _352
REMARK  137  A    between atoms: _352  and  _353
REMARK  138  A    between atoms: _356  and  _358
REMARK  139  A    between atoms: _358  and  _359
REMARK  140  A    between atoms: _358  and  _361
REMARK  141  A    between atoms: _361  and  _362
REMARK  142  A    between atoms: _367  and  _369
REMARK  143  A    between atoms: _369  and  _370
REMARK  144  A    between atoms: _369  and  _372
REMARK  145  A    between atoms: _372  and  _373
REMARK  146  A    between atoms: _373  and  _374
REMARK  147  A    between atoms: _374  and  _375
REMARK  148  A    between atoms: _375  and  _376
REMARK  149  A    between atoms: _380  and  _382
REMARK  150  A    between atoms: _382  and  _383
REMARK  151  A    between atoms: _382  and  _385
REMARK  152  A    between atoms: _385  and  _386
REMARK  153  A    between atoms: _389  and  _391
REMARK  154  A    between atoms: _391  and  _392
REMARK  155  A    between atoms: _391  and  _394
REMARK  156  A    between atoms: _394  and  _395
REMARK  157  A    between atoms: _400  and  _402
REMARK  158  A    between atoms: _402  and  _403
REMARK  159  A    between atoms: _405  and  _407
REMARK  160  A    between atoms: _407  and  _408
REMARK  161  A    between atoms: _407  and  _410
REMARK  162  A    between atoms: _410  and  _411
REMARK  163  A    between atoms: _414  and  _416
REMARK  164  A    between atoms: _416  and  _417
REMARK  165  A    between atoms: _416  and  _419
REMARK  166  A    between atoms: _419  and  _420
REMARK  167  A    between atoms: _420  and  _421
REMARK  168  A    between atoms: _421  and  _422
REMARK  169  A    between atoms: _422  and  _423
REMARK  170  A    between atoms: _427  and  _429
REMARK  171  A    between atoms: _429  and  _430
REMARK  172  A    between atoms: _429  and  _432
REMARK  173  A    between atoms: _432  and  _433
REMARK  174  A    between atoms: _433  and  _434
REMARK  175  A    between atoms: _434  and  _435
REMARK  176  A    between atoms: _444  and  _446
REMARK  177  A    between atoms: _446  and  _447
REMARK  178  A    between atoms: _446  and  _449
REMARK  179  A    between atoms: _449  and  _450
REMARK  180  A    between atoms: _455  and  _457
REMARK  181  A    between atoms: _457  and  _458
REMARK  182  A    between atoms: _457  and  _460
REMARK  183  A    between atoms: _460  and  _461
REMARK  184  A    between atoms: _466  and  _467
REMARK  185  A    between atoms: _469  and  _471
REMARK  186  A    between atoms: _471  and  _472
REMARK  187  A    between atoms: _471  and  _474
REMARK  188  A    between atoms: _474  and  _475
REMARK  189  A    between atoms: _475  and  _476
REMARK  190  A    between atoms: _476  and  _477
REMARK  191  A    between atoms: _477  and  _478
REMARK  192  A    between atoms: _482  and  _484
REMARK  193  A    between atoms: _484  and  _485
REMARK  194  A    between atoms: _484  and  _487
REMARK  195  A    between atoms: _487  and  _488
REMARK  196  A    between atoms: _490  and  _492
REMARK  197  A    between atoms: _492  and  _493
REMARK  198  A    between atoms: _492  and  _495
REMARK  199  A    between atoms: _495  and  _496
REMARK  200  A    between atoms: _499  and  _501
REMARK  201  A    between atoms: _501  and  _502
REMARK  202  A    between atoms: _501  and  _504
REMARK  203  A    between atoms: _504  and  _505
REMARK  204  A    between atoms: _505  and  _506
REMARK  205  A    between atoms: _509  and  _511
REMARK  206  A    between atoms: _511  and  _512
REMARK  207  A    between atoms: _515  and  _517
REMARK  208  A    between atoms: _517  and  _518
REMARK  209  A    between atoms: _517  and  _520
REMARK  210  A    between atoms: _520  and  _521
REMARK  211  A    between atoms: _523  and  _525
REMARK  212  A    between atoms: _525  and  _526
REMARK  213  A    between atoms: _528  and  _530
REMARK  214  A    between atoms: _530  and  _531
REMARK  215  A    between atoms: _530  and  _533
REMARK  216  A    between atoms: _533  and  _534
REMARK  217  A    between atoms: _537  and  _539
REMARK  218  A    between atoms: _539  and  _540
REMARK  219  A    between atoms: _542  and  _544
REMARK  220  A    between atoms: _544  and  _545
REMARK  221  A    between atoms: _544  and  _547
REMARK  222  A    between atoms: _547  and  _548
REMARK  223  A    between atoms: _553  and  _555
REMARK  224  A    between atoms: _555  and  _556
REMARK  225  A    between atoms: _555  and  _558
REMARK  226  A    between atoms: _558  and  _559
REMARK  227  A    between atoms: _559  and  _560
REMARK  228  A    between atoms: _567  and  _568
REMARK  229  A    between atoms: _568  and  _584
REMARK  230  A    between atoms: _569  and  _571
REMARK  231  A    between atoms: _571  and  _572
REMARK  232  A    between atoms: _572  and  _573
REMARK  233  A    between atoms: _577  and  _579
REMARK  234  A    between atoms: _579  and  _580
REMARK  235  A    between atoms: _579  and  _587
REMARK  236  A    between atoms: _580  and  _581
REMARK  237  A    between atoms: _581  and  _582
REMARK  238  A    between atoms: _582  and  _583
REMARK  239  A    between atoms: _583  and  _584
REMARK  240  A    between atoms: _589  and  _591
REMARK  241  A    between atoms: _591  and  _592
REMARK  242  A    between atoms: _591  and  _594
REMARK  243  A    between atoms: _594  and  _595
REMARK  244  A    between atoms: _598  and  _600
REMARK  245  A    between atoms: _600  and  _601
REMARK  246  A    between atoms: _603  and  _605
REMARK  247  A    between atoms: _605  and  _606
REMARK  248  A    between atoms: _609  and  _611
REMARK  249  A    between atoms: _611  and  _612
REMARK  250  A    between atoms: _611  and  _614
REMARK  251  A    between atoms: _614  and  _615
REMARK  252  A    between atoms: _618  and  _620
REMARK  253  A    between atoms: _620  and  _621
REMARK  254  A    between atoms: _620  and  _623
REMARK  255  A    between atoms: _623  and  _624
REMARK  256  A    between atoms: _629  and  _630
REMARK                            x       y       z     vdW  Elec       q    Type
REMARK                         _______ _______ _______ _____ _____    ______ ____
ROOT
ATOM      1  O   HOH     1      29.470  25.981  18.157  0.00  0.00    +0.000 OA
ENDROOT
TORSDOF 0
REMARK  Name = ../refined-set-2016/3syr/3syr_pocket.pdb
REMARK  256 active torsions:
REMARK  status: ('A' for Active; 'I' for Inactive)
REMARK    1  A    between atoms: _1  and  _3
REMARK    2  A    between atoms: _3  and  _4
REMARK    3  A    between atoms: _3  and  _6
REMARK    4  A    between atoms: _6  and  _7
REMARK    5  A    between atoms: _12  and  _13
REMARK    6  A    between atoms: _15  and  _17
REMARK    7  A    between atoms: _17  and  _18
REMARK    8  A    between atoms: _17  and  _20
REMARK    9  A    between atoms: _20  and  _21
REMARK   10  A    between atoms: _21  and  _22
REMARK   11  A    between atoms: _25  and  _27
REMARK   12  A    between atoms: _27  and  _28
REMARK   13  A    between atoms: _27  and  _30
REMARK   14  A    between atoms: _30  and  _31
REMARK   15  A    between atoms: _36  and  _37
REMARK   16  A    between atoms: _39  and  _41
REMARK   17  A    between atoms: _41  and  _42
REMARK   18  A    between atoms: _41  and  _44
REMARK   19  A    between atoms: _44  and  _45
REMARK   20  A    between atoms: _50  and  _52
REMARK   21  A    between atoms: _52  and  _53
REMARK   22  A    between atoms: _55  and  _57
REMARK   23  A    between atoms: _57  and  _58
REMARK   24  A    between atoms: _60  and  _62
REMARK   25  A    between atoms: _62  and  _63
REMARK   26  A    between atoms: _62  and  _65
REMARK   27  A    between atoms: _65  and  _66
REMARK   28  A    between atoms: _69  and  _71
REMARK   29  A    between atoms: _71  and  _72
REMARK   30  A    between atoms: _74  and  _76
REMARK   31  A    between atoms: _76  and  _77
REMARK   32  A    between atoms: _76  and  _79
REMARK   33  A    between atoms: _79  and  _80
REMARK   34  A    between atoms: _80  and  _81
REMARK   35  A    between atoms: _81  and  _82
REMARK   36  A    between atoms: _91  and  _93
REMARK   37  A    between atoms: _93  and  _94
REMARK   38  A    between atoms: _93  and  _96
REMARK   39  A    between atoms: _96  and  _97
REMARK   40  A    between atoms: _100  and  _102
REMARK   41  A    between atoms: _102  and  _103
REMARK   42  A    between atoms: _106  and  _108
REMARK   43  A    between atoms: _108  and  _109
REMARK   44  A    between atoms: _108  and  _111
REMARK   45  A    between atoms: _111  and  _112
REMARK   46  A    between atoms: _118  and  _120
REMARK   47  A    between atoms: _120  and  _121
REMARK   48  A    between atoms: _120  and  _123
REMARK   49  A    between atoms: _123  and  _124
REMARK   50  A    between atoms: _129  and  _131
REMARK   51  A    between atoms: _131  and  _132
REMARK   52  A    between atoms: _131  and  _134
REMARK   53  A    between atoms: _134  and  _135
REMARK   54  A    between atoms: _138  and  _140
REMARK   55  A    between atoms: _140  and  _141
REMARK   56  A    between atoms: _140  and  _143
REMARK   57  A    between atoms: _143  and  _144
REMARK   58  A    between atoms: _149  and  _151
REMARK   59  A    between atoms: _151  and  _152
REMARK   60  A    between atoms: _151  and  _154
REMARK   61  A    between atoms: _154  and  _155
REMARK   62  A    between atoms: _161  and  _163
REMARK   63  A    between atoms: _163  and  _164
REMARK   64  A    between atoms: _163  and  _166
REMARK   65  A    between atoms: _166  and  _167
REMARK   66  A    between atoms: _173  and  _175
REMARK   67  A    between atoms: _175  and  _176
REMARK   68  A    between atoms: _175  and  _178
REMARK   69  A    between atoms: _178  and  _179
REMARK   70  A    between atoms: _179  and  _180
REMARK   71  A    between atoms: _180  and  _181
REMARK   72  A    between atoms: _190  and  _192
REMARK   73  A    between atoms: _192  and  _193
REMARK   74  A    between atoms: _192  and  _195
REMARK   75  A    between atoms: _195  and  _196
REMARK   76  A    between atoms: _201  and  _203
REMARK   77  A    between atoms: _203  and  _204
REMARK   78  A    between atoms: _203  and  _206
REMARK   79  A    between atoms: _206  and  _207
REMARK   80  A    between atoms: _210  and  _212
REMARK   81  A    between atoms: _212  and  _213
REMARK   82  A    between atoms: _212  and  _215
REMARK   83  A    between atoms: _215  and  _216
REMARK   84  A    between atoms: _219  and  _221
REMARK   85  A    between atoms: _221  and  _222
REMARK   86  A    between atoms: _221  and  _224
REMARK   87  A    between atoms: _224  and  _225
REMARK   88  A    between atoms: _230  and  _232
REMARK   89  A    between atoms: _232  and  _233
REMARK   90  A    between atoms: _232  and  _235
REMARK   91  A    between atoms: _235  and  _236
REMARK   92  A    between atoms: _241  and  _242
REMARK   93  A    between atoms: _244  and  _246
REMARK   94  A    between atoms: _246  and  _247
REMARK   95  A    between atoms: _246  and  _249
REMARK   96  A    between atoms: _249  and  _250
REMARK   97  A    between atoms: _253  and  _255
REMARK   98  A    between atoms: _255  and  _256
REMARK   99  A    between atoms: _255  and  _258
REMARK  100  A    between atoms: _258  and  _259
REMARK  101  A    between atoms: _264  and  _266
REMARK  102  A    between atoms: _266  and  _267
REMARK  103  A    between atoms: _266  and  _269
REMARK  104  A    between atoms: _269  and  _270
REMARK  105  A    between atoms: _275  and  _277
REMARK  106  A    between atoms: _277  and  _278
REMARK  107  A    between atoms: _277  and  _280
REMARK  108  A    between atoms: _280  and  _281
REMARK  109  A    between atoms: _284  and  _286
REMARK  110  A    between atoms: _286  and  _287
REMARK  111  A    between atoms: _286  and  _289
REMARK  112  A    between atoms: _292  and  _294
REMARK  113  A    between atoms: _294  and  _295
REMARK  114  A    between atoms: _294  and  _297
REMARK  115  A    between atoms: _297  and  _298
REMARK  116  A    between atoms: _301  and  _303
REMARK  117  A    between atoms: _303  and  _304
REMARK  118  A    between atoms: _307  and  _309
REMARK  119  A    between atoms: _309  and  _310
REMARK  120  A    between atoms: _309  and  _312
REMARK  121  A    between atoms: _312  and  _313
REMARK  122  A    between atoms: _316  and  _318
REMARK  123  A    between atoms: _318  and  _319
REMARK  124  A    between atoms: _318  and  _321
REMARK  125  A    between atoms: _321  and  _322
REMARK  126  A    between atoms: _322  and  _323
REMARK  127  A    between atoms: _326  and  _328
REMARK  128  A    between atoms: _328  and  _329
REMARK  129  A    between atoms: _328  and  _331
REMARK  130  A    between atoms: _331  and  _332
REMARK  131  A    between atoms: _337  and  _339
REMARK  132  A    between atoms: _339  and  _340
REMARK  133  A    between atoms: _342  and  _344
REMARK  134  A    between atoms: _344  and  _345
REMARK  135  A    between atoms: _344  and  _347
REMARK  136  A    between atoms: _350  and  _352
REMARK  137  A    between atoms: _352  and  _353
REMARK  138  A    between atoms: _356  and  _358
REMARK  139  A    between atoms: _358  and  _359
REMARK  140  A    between atoms: _358  and  _361
REMARK  141  A    between atoms: _361  and  _362
REMARK  142  A    between atoms: _367  and  _369
REMARK  143  A    between atoms: _369  and  _370
REMARK  144  A    between atoms: _369  and  _372
REMARK  145  A    between atoms: _372  and  _373
REMARK  146  A    between atoms: _373  and  _374
REMARK  147  A    between atoms: _374  and  _375
REMARK  148  A    between atoms: _375  and  _376
REMARK  149  A    between atoms: _380  and  _382
REMARK  150  A    between atoms: _382  and  _383
REMARK  151  A    between atoms: _382  and  _385
REMARK  152  A    between atoms: _385  and  _386
REMARK  153  A    between atoms: _389  and  _391
REMARK  154  A    between atoms: _391  and  _392
REMARK  155  A    between atoms: _391  and  _394
REMARK  156  A    between atoms: _394  and  _395
REMARK  157  A    between atoms: _400  and  _402
REMARK  158  A    between atoms: _402  and  _403
REMARK  159  A    between atoms: _405  and  _407
REMARK  160  A    between atoms: _407  and  _408
REMARK  161  A    between atoms: _407  and  _410
REMARK  162  A    between atoms: _410  and  _411
REMARK  163  A    between atoms: _414  and  _416
REMARK  164  A    between atoms: _416  and  _417
REMARK  165  A    between atoms: _416  and  _419
REMARK  166  A    between atoms: _419  and  _420
REMARK  167  A    between atoms: _420  and  _421
REMARK  168  A    between atoms: _421  and  _422
REMARK  169  A    between atoms: _422  and  _423
REMARK  170  A    between atoms: _427  and  _429
REMARK  171  A    between atoms: _429  and  _430
REMARK  172  A    between atoms: _429  and  _432
REMARK  173  A    between atoms: _432  and  _433
REMARK  174  A    between atoms: _433  and  _434
REMARK  175  A    between atoms: _434  and  _435
REMARK  176  A    between atoms: _444  and  _446
REMARK  177  A    between atoms: _446  and  _447
REMARK  178  A    between atoms: _446  and  _449
REMARK  179  A    between atoms: _449  and  _450
REMARK  180  A    between atoms: _455  and  _457
REMARK  181  A    between atoms: _457  and  _458
REMARK  182  A    between atoms: _457  and  _460
REMARK  183  A    between atoms: _460  and  _461
REMARK  184  A    between atoms: _466  and  _467
REMARK  185  A    between atoms: _469  and  _471
REMARK  186  A    between atoms: _471  and  _472
REMARK  187  A    between atoms: _471  and  _474
REMARK  188  A    between atoms: _474  and  _475
REMARK  189  A    between atoms: _475  and  _476
REMARK  190  A    between atoms: _476  and  _477
REMARK  191  A    between atoms: _477  and  _478
REMARK  192  A    between atoms: _482  and  _484
REMARK  193  A    between atoms: _484  and  _485
REMARK  194  A    between atoms: _484  and  _487
REMARK  195  A    between atoms: _487  and  _488
REMARK  196  A    between atoms: _490  and  _492
REMARK  197  A    between atoms: _492  and  _493
REMARK  198  A    between atoms: _492  and  _495
REMARK  199  A    between atoms: _495  and  _496
REMARK  200  A    between atoms: _499  and  _501
REMARK  201  A    between atoms: _501  and  _502
REMARK  202  A    between atoms: _501  and  _504
REMARK  203  A    between atoms: _504  and  _505
REMARK  204  A    between atoms: _505  and  _506
REMARK  205  A    between atoms: _509  and  _511
REMARK  206  A    between atoms: _511  and  _512
REMARK  207  A    between atoms: _515  and  _517
REMARK  208  A    between atoms: _517  and  _518
REMARK  209  A    between atoms: _517  and  _520
REMARK  210  A    between atoms: _520  and  _521
REMARK  211  A    between atoms: _523  and  _525
REMARK  212  A    between atoms: _525  and  _526
REMARK  213  A    between atoms: _528  and  _530
REMARK  214  A    between atoms: _530  and  _531
REMARK  215  A    between atoms: _530  and  _533
REMARK  216  A    between atoms: _533  and  _534
REMARK  217  A    between atoms: _537  and  _539
REMARK  218  A    between atoms: _539  and  _540
REMARK  219  A    between atoms: _542  and  _544
REMARK  220  A    between atoms: _544  and  _545
REMARK  221  A    between atoms: _544  and  _547
REMARK  222  A    between atoms: _547  and  _548
REMARK  223  A    between atoms: _553  and  _555
REMARK  224  A    between atoms: _555  and  _556
REMARK  225  A    between atoms: _555  and  _558
REMARK  226  A    between atoms: _558  and  _559
REMARK  227  A    between atoms: _559  and  _560
REMARK  228  A    between atoms: _567  and  _568
REMARK  229  A    between atoms: _568  and  _584
REMARK  230  A    between atoms: _569  and  _571
REMARK  231  A    between atoms: _571  and  _572
REMARK  232  A    between atoms: _572  and  _573
REMARK  233  A    between atoms: _577  and  _579
REMARK  234  A    between atoms: _579  and  _580
REMARK  235  A    between atoms: _579  and  _587
REMARK  236  A    between atoms: _580  and  _581
REMARK  237  A    between atoms: _581  and  _582
REMARK  238  A    between atoms: _582  and  _583
REMARK  239  A    between atoms: _583  and  _584
REMARK  240  A    between atoms: _589  and  _591
REMARK  241  A    between atoms: _591  and  _592
REMARK  242  A    between atoms: _591  and  _594
REMARK  243  A    between atoms: _594  and  _595
REMARK  244  A    between atoms: _598  and  _600
REMARK  245  A    between atoms: _600  and  _601
REMARK  246  A    between atoms: _603  and  _605
REMARK  247  A    between atoms: _605  and  _606
REMARK  248  A    between atoms: _609  and  _611
REMARK  249  A    between atoms: _611  and  _612
REMARK  250  A    between atoms: _611  and  _614
REMARK  251  A    between atoms: _614  and  _615
REMARK  252  A    between atoms: _618  and  _620
REMARK  253  A    between atoms: _620  and  _621
REMARK  254  A    between atoms: _620  and  _623
REMARK  255  A    between atoms: _623  and  _624
REMARK  256  A    between atoms: _629  and  _630
REMARK                            x       y       z     vdW  Elec       q    Type
REMARK                         _______ _______ _______ _____ _____    ______ ____
ROOT
ATOM      1  O   HOH     1      26.906  19.065  28.916  0.00  0.00    +0.000 OA
ENDROOT
TORSDOF 0
REMARK  Name = ../refined-set-2016/3syr/3syr_pocket.pdb
REMARK  256 active torsions:
REMARK  status: ('A' for Active; 'I' for Inactive)
REMARK    1  A    between atoms: _1  and  _3
REMARK    2  A    between atoms: _3  and  _4
REMARK    3  A    between atoms: _3  and  _6
REMARK    4  A    between atoms: _6  and  _7
REMARK    5  A    between atoms: _12  and  _13
REMARK    6  A    between atoms: _15  and  _17
REMARK    7  A    between atoms: _17  and  _18
REMARK    8  A    between atoms: _17  and  _20
REMARK    9  A    between atoms: _20  and  _21
REMARK   10  A    between atoms: _21  and  _22
REMARK   11  A    between atoms: _25  and  _27
REMARK   12  A    between atoms: _27  and  _28
REMARK   13  A    between atoms: _27  and  _30
REMARK   14  A    between atoms: _30  and  _31
REMARK   15  A    between atoms: _36  and  _37
REMARK   16  A    between atoms: _39  and  _41
REMARK   17  A    between atoms: _41  and  _42
REMARK   18  A    between atoms: _41  and  _44
REMARK   19  A    between atoms: _44  and  _45
REMARK   20  A    between atoms: _50  and  _52
REMARK   21  A    between atoms: _52  and  _53
REMARK   22  A    between atoms: _55  and  _57
REMARK   23  A    between atoms: _57  and  _58
REMARK   24  A    between atoms: _60  and  _62
REMARK   25  A    between atoms: _62  and  _63
REMARK   26  A    between atoms: _62  and  _65
REMARK   27  A    between atoms: _65  and  _66
REMARK   28  A    between atoms: _69  and  _71
REMARK   29  A    between atoms: _71  and  _72
REMARK   30  A    between atoms: _74  and  _76
REMARK   31  A    between atoms: _76  and  _77
REMARK   32  A    between atoms: _76  and  _79
REMARK   33  A    between atoms: _79  and  _80
REMARK   34  A    between atoms: _80  and  _81
REMARK   35  A    between atoms: _81  and  _82
REMARK   36  A    between atoms: _91  and  _93
REMARK   37  A    between atoms: _93  and  _94
REMARK   38  A    between atoms: _93  and  _96
REMARK   39  A    between atoms: _96  and  _97
REMARK   40  A    between atoms: _100  and  _102
REMARK   41  A    between atoms: _102  and  _103
REMARK   42  A    between atoms: _106  and  _108
REMARK   43  A    between atoms: _108  and  _109
REMARK   44  A    between atoms: _108  and  _111
REMARK   45  A    between atoms: _111  and  _112
REMARK   46  A    between atoms: _118  and  _120
REMARK   47  A    between atoms: _120  and  _121
REMARK   48  A    between atoms: _120  and  _123
REMARK   49  A    between atoms: _123  and  _124
REMARK   50  A    between atoms: _129  and  _131
REMARK   51  A    between atoms: _131  and  _132
REMARK   52  A    between atoms: _131  and  _134
REMARK   53  A    between atoms: _134  and  _135
REMARK   54  A    between atoms: _138  and  _140
REMARK   55  A    between atoms: _140  and  _141
REMARK   56  A    between atoms: _140  and  _143
REMARK   57  A    between atoms: _143  and  _144
REMARK   58  A    between atoms: _149  and  _151
REMARK   59  A    between atoms: _151  and  _152
REMARK   60  A    between atoms: _151  and  _154
REMARK   61  A    between atoms: _154  and  _155
REMARK   62  A    between atoms: _161  and  _163
REMARK   63  A    between atoms: _163  and  _164
REMARK   64  A    between atoms: _163  and  _166
REMARK   65  A    between atoms: _166  and  _167
REMARK   66  A    between atoms: _173  and  _175
REMARK   67  A    between atoms: _175  and  _176
REMARK   68  A    between atoms: _175  and  _178
REMARK   69  A    between atoms: _178  and  _179
REMARK   70  A    between atoms: _179  and  _180
REMARK   71  A    between atoms: _180  and  _181
REMARK   72  A    between atoms: _190  and  _192
REMARK   73  A    between atoms: _192  and  _193
REMARK   74  A    between atoms: _192  and  _195
REMARK   75  A    between atoms: _195  and  _196
REMARK   76  A    between atoms: _201  and  _203
REMARK   77  A    between atoms: _203  and  _204
REMARK   78  A    between atoms: _203  and  _206
REMARK   79  A    between atoms: _206  and  _207
REMARK   80  A    between atoms: _210  and  _212
REMARK   81  A    between atoms: _212  and  _213
REMARK   82  A    between atoms: _212  and  _215
REMARK   83  A    between atoms: _215  and  _216
REMARK   84  A    between atoms: _219  and  _221
REMARK   85  A    between atoms: _221  and  _222
REMARK   86  A    between atoms: _221  and  _224
REMARK   87  A    between atoms: _224  and  _225
REMARK   88  A    between atoms: _230  and  _232
REMARK   89  A    between atoms: _232  and  _233
REMARK   90  A    between atoms: _232  and  _235
REMARK   91  A    between atoms: _235  and  _236
REMARK   92  A    between atoms: _241  and  _242
REMARK   93  A    between atoms: _244  and  _246
REMARK   94  A    between atoms: _246  and  _247
REMARK   95  A    between atoms: _246  and  _249
REMARK   96  A    between atoms: _249  and  _250
REMARK   97  A    between atoms: _253  and  _255
REMARK   98  A    between atoms: _255  and  _256
REMARK   99  A    between atoms: _255  and  _258
REMARK  100  A    between atoms: _258  and  _259
REMARK  101  A    between atoms: _264  and  _266
REMARK  102  A    between atoms: _266  and  _267
REMARK  103  A    between atoms: _266  and  _269
REMARK  104  A    between atoms: _269  and  _270
REMARK  105  A    between atoms: _275  and  _277
REMARK  106  A    between atoms: _277  and  _278
REMARK  107  A    between atoms: _277  and  _280
REMARK  108  A    between atoms: _280  and  _281
REMARK  109  A    between atoms: _284  and  _286
REMARK  110  A    between atoms: _286  and  _287
REMARK  111  A    between atoms: _286  and  _289
REMARK  112  A    between atoms: _292  and  _294
REMARK  113  A    between atoms: _294  and  _295
REMARK  114  A    between atoms: _294  and  _297
REMARK  115  A    between atoms: _297  and  _298
REMARK  116  A    between atoms: _301  and  _303
REMARK  117  A    between atoms: _303  and  _304
REMARK  118  A    between atoms: _307  and  _309
REMARK  119  A    between atoms: _309  and  _310
REMARK  120  A    between atoms: _309  and  _312
REMARK  121  A    between atoms: _312  and  _313
REMARK  122  A    between atoms: _316  and  _318
REMARK  123  A    between atoms: _318  and  _319
REMARK  124  A    between atoms: _318  and  _321
REMARK  125  A    between atoms: _321  and  _322
REMARK  126  A    between atoms: _322  and  _323
REMARK  127  A    between atoms: _326  and  _328
REMARK  128  A    between atoms: _328  and  _329
REMARK  129  A    between atoms: _328  and  _331
REMARK  130  A    between atoms: _331  and  _332
REMARK  131  A    between atoms: _337  and  _339
REMARK  132  A    between atoms: _339  and  _340
REMARK  133  A    between atoms: _342  and  _344
REMARK  134  A    between atoms: _344  and  _345
REMARK  135  A    between atoms: _344  and  _347
REMARK  136  A    between atoms: _350  and  _352
REMARK  137  A    between atoms: _352  and  _353
REMARK  138  A    between atoms: _356  and  _358
REMARK  139  A    between atoms: _358  and  _359
REMARK  140  A    between atoms: _358  and  _361
REMARK  141  A    between atoms: _361  and  _362
REMARK  142  A    between atoms: _367  and  _369
REMARK  143  A    between atoms: _369  and  _370
REMARK  144  A    between atoms: _369  and  _372
REMARK  145  A    between atoms: _372  and  _373
REMARK  146  A    between atoms: _373  and  _374
REMARK  147  A    between atoms: _374  and  _375
REMARK  148  A    between atoms: _375  and  _376
REMARK  149  A    between atoms: _380  and  _382
REMARK  150  A    between atoms: _382  and  _383
REMARK  151  A    between atoms: _382  and  _385
REMARK  152  A    between atoms: _385  and  _386
REMARK  153  A    between atoms: _389  and  _391
REMARK  154  A    between atoms: _391  and  _392
REMARK  155  A    between atoms: _391  and  _394
REMARK  156  A    between atoms: _394  and  _395
REMARK  157  A    between atoms: _400  and  _402
REMARK  158  A    between atoms: _402  and  _403
REMARK  159  A    between atoms: _405  and  _407
REMARK  160  A    between atoms: _407  and  _408
REMARK  161  A    between atoms: _407  and  _410
REMARK  162  A    between atoms: _410  and  _411
REMARK  163  A    between atoms: _414  and  _416
REMARK  164  A    between atoms: _416  and  _417
REMARK  165  A    between atoms: _416  and  _419
REMARK  166  A    between atoms: _419  and  _420
REMARK  167  A    between atoms: _420  and  _421
REMARK  168  A    between atoms: _421  and  _422
REMARK  169  A    between atoms: _422  and  _423
REMARK  170  A    between atoms: _427  and  _429
REMARK  171  A    between atoms: _429  and  _430
REMARK  172  A    between atoms: _429  and  _432
REMARK  173  A    between atoms: _432  and  _433
REMARK  174  A    between atoms: _433  and  _434
REMARK  175  A    between atoms: _434  and  _435
REMARK  176  A    between atoms: _444  and  _446
REMARK  177  A    between atoms: _446  and  _447
REMARK  178  A    between atoms: _446  and  _449
REMARK  179  A    between atoms: _449  and  _450
REMARK  180  A    between atoms: _455  and  _457
REMARK  181  A    between atoms: _457  and  _458
REMARK  182  A    between atoms: _457  and  _460
REMARK  183  A    between atoms: _460  and  _461
REMARK  184  A    between atoms: _466  and  _467
REMARK  185  A    between atoms: _469  and  _471
REMARK  186  A    between atoms: _471  and  _472
REMARK  187  A    between atoms: _471  and  _474
REMARK  188  A    between atoms: _474  and  _475
REMARK  189  A    between atoms: _475  and  _476
REMARK  190  A    between atoms: _476  and  _477
REMARK  191  A    between atoms: _477  and  _478
REMARK  192  A    between atoms: _482  and  _484
REMARK  193  A    between atoms: _484  and  _485
REMARK  194  A    between atoms: _484  and  _487
REMARK  195  A    between atoms: _487  and  _488
REMARK  196  A    between atoms: _490  and  _492
REMARK  197  A    between atoms: _492  and  _493
REMARK  198  A    between atoms: _492  and  _495
REMARK  199  A    between atoms: _495  and  _496
REMARK  200  A    between atoms: _499  and  _501
REMARK  201  A    between atoms: _501  and  _502
REMARK  202  A    between atoms: _501  and  _504
REMARK  203  A    between atoms: _504  and  _505
REMARK  204  A    between atoms: _505  and  _506
REMARK  205  A    between atoms: _509  and  _511
REMARK  206  A    between atoms: _511  and  _512
REMARK  207  A    between atoms: _515  and  _517
REMARK  208  A    between atoms: _517  and  _518
REMARK  209  A    between atoms: _517  and  _520
REMARK  210  A    between atoms: _520  and  _521
REMARK  211  A    between atoms: _523  and  _525
REMARK  212  A    between atoms: _525  and  _526
REMARK  213  A    between atoms: _528  and  _530
REMARK  214  A    between atoms: _530  and  _531
REMARK  215  A    between atoms: _530  and  _533
REMARK  216  A    between atoms: _533  and  _534
REMARK  217  A    between atoms: _537  and  _539
REMARK  218  A    between atoms: _539  and  _540
REMARK  219  A    between atoms: _542  and  _544
REMARK  220  A    between atoms: _544  and  _545
REMARK  221  A    between atoms: _544  and  _547
REMARK  222  A    between atoms: _547  and  _548
REMARK  223  A    between atoms: _553  and  _555
REMARK  224  A    between atoms: _555  and  _556
REMARK  225  A    between atoms: _555  and  _558
REMARK  226  A    between atoms: _558  and  _559
REMARK  227  A    between atoms: _559  and  _560
REMARK  228  A    between atoms: _567  and  _568
REMARK  229  A    between atoms: _568  and  _584
REMARK  230  A    between atoms: _569  and  _571
REMARK  231  A    between atoms: _571  and  _572
REMARK  232  A    between atoms: _572  and  _573
REMARK  233  A    between atoms: _577  and  _579
REMARK  234  A    between atoms: _579  and  _580
REMARK  235  A    between atoms: _579  and  _587
REMARK  236  A    between atoms: _580  and  _581
REMARK  237  A    between atoms: _581  and  _582
REMARK  238  A    between atoms: _582  and  _583
REMARK  239  A    between atoms: _583  and  _584
REMARK  240  A    between atoms: _589  and  _591
REMARK  241  A    between atoms: _591  and  _592
REMARK  242  A    between atoms: _591  and  _594
REMARK  243  A    between atoms: _594  and  _595
REMARK  244  A    between atoms: _598  and  _600
REMARK  245  A    between atoms: _600  and  _601
REMARK  246  A    between atoms: _603  and  _605
REMARK  247  A    between atoms: _605  and  _606
REMARK  248  A    between atoms: _609  and  _611
REMARK  249  A    between atoms: _611  and  _612
REMARK  250  A    between atoms: _611  and  _614
REMARK  251  A    between atoms: _614  and  _615
REMARK  252  A    between atoms: _618  and  _620
REMARK  253  A    between atoms: _620  and  _621
REMARK  254  A    between atoms: _620  and  _623
REMARK  255  A    between atoms: _623  and  _624
REMARK  256  A    between atoms: _629  and  _630
REMARK                            x       y       z     vdW  Elec       q    Type
REMARK                         _______ _______ _______ _____ _____    ______ ____
ROOT
ATOM      1  O   HOH     1      29.186  21.673  26.174  0.00  0.00    +0.000 OA
ENDROOT
TORSDOF 0
REMARK  Name = ../refined-set-2016/3syr/3syr_pocket.pdb
REMARK  256 active torsions:
REMARK  status: ('A' for Active; 'I' for Inactive)
REMARK    1  A    between atoms: _1  and  _3
REMARK    2  A    between atoms: _3  and  _4
REMARK    3  A    between atoms: _3  and  _6
REMARK    4  A    between atoms: _6  and  _7
REMARK    5  A    between atoms: _12  and  _13
REMARK    6  A    between atoms: _15  and  _17
REMARK    7  A    between atoms: _17  and  _18
REMARK    8  A    between atoms: _17  and  _20
REMARK    9  A    between atoms: _20  and  _21
REMARK   10  A    between atoms: _21  and  _22
REMARK   11  A    between atoms: _25  and  _27
REMARK   12  A    between atoms: _27  and  _28
REMARK   13  A    between atoms: _27  and  _30
REMARK   14  A    between atoms: _30  and  _31
REMARK   15  A    between atoms: _36  and  _37
REMARK   16  A    between atoms: _39  and  _41
REMARK   17  A    between atoms: _41  and  _42
REMARK   18  A    between atoms: _41  and  _44
REMARK   19  A    between atoms: _44  and  _45
REMARK   20  A    between atoms: _50  and  _52
REMARK   21  A    between atoms: _52  and  _53
REMARK   22  A    between atoms: _55  and  _57
REMARK   23  A    between atoms: _57  and  _58
REMARK   24  A    between atoms: _60  and  _62
REMARK   25  A    between atoms: _62  and  _63
REMARK   26  A    between atoms: _62  and  _65
REMARK   27  A    between atoms: _65  and  _66
REMARK   28  A    between atoms: _69  and  _71
REMARK   29  A    between atoms: _71  and  _72
REMARK   30  A    between atoms: _74  and  _76
REMARK   31  A    between atoms: _76  and  _77
REMARK   32  A    between atoms: _76  and  _79
REMARK   33  A    between atoms: _79  and  _80
REMARK   34  A    between atoms: _80  and  _81
REMARK   35  A    between atoms: _81  and  _82
REMARK   36  A    between atoms: _91  and  _93
REMARK   37  A    between atoms: _93  and  _94
REMARK   38  A    between atoms: _93  and  _96
REMARK   39  A    between atoms: _96  and  _97
REMARK   40  A    between atoms: _100  and  _102
REMARK   41  A    between atoms: _102  and  _103
REMARK   42  A    between atoms: _106  and  _108
REMARK   43  A    between atoms: _108  and  _109
REMARK   44  A    between atoms: _108  and  _111
REMARK   45  A    between atoms: _111  and  _112
REMARK   46  A    between atoms: _118  and  _120
REMARK   47  A    between atoms: _120  and  _121
REMARK   48  A    between atoms: _120  and  _123
REMARK   49  A    between atoms: _123  and  _124
REMARK   50  A    between atoms: _129  and  _131
REMARK   51  A    between atoms: _131  and  _132
REMARK   52  A    between atoms: _131  and  _134
REMARK   53  A    between atoms: _134  and  _135
REMARK   54  A    between atoms: _138  and  _140
REMARK   55  A    between atoms: _140  and  _141
REMARK   56  A    between atoms: _140  and  _143
REMARK   57  A    between atoms: _143  and  _144
REMARK   58  A    between atoms: _149  and  _151
REMARK   59  A    between atoms: _151  and  _152
REMARK   60  A    between atoms: _151  and  _154
REMARK   61  A    between atoms: _154  and  _155
REMARK   62  A    between atoms: _161  and  _163
REMARK   63  A    between atoms: _163  and  _164
REMARK   64  A    between atoms: _163  and  _166
REMARK   65  A    between atoms: _166  and  _167
REMARK   66  A    between atoms: _173  and  _175
REMARK   67  A    between atoms: _175  and  _176
REMARK   68  A    between atoms: _175  and  _178
REMARK   69  A    between atoms: _178  and  _179
REMARK   70  A    between atoms: _179  and  _180
REMARK   71  A    between atoms: _180  and  _181
REMARK   72  A    between atoms: _190  and  _192
REMARK   73  A    between atoms: _192  and  _193
REMARK   74  A    between atoms: _192  and  _195
REMARK   75  A    between atoms: _195  and  _196
REMARK   76  A    between atoms: _201  and  _203
REMARK   77  A    between atoms: _203  and  _204
REMARK   78  A    between atoms: _203  and  _206
REMARK   79  A    between atoms: _206  and  _207
REMARK   80  A    between atoms: _210  and  _212
REMARK   81  A    between atoms: _212  and  _213
REMARK   82  A    between atoms: _212  and  _215
REMARK   83  A    between atoms: _215  and  _216
REMARK   84  A    between atoms: _219  and  _221
REMARK   85  A    between atoms: _221  and  _222
REMARK   86  A    between atoms: _221  and  _224
REMARK   87  A    between atoms: _224  and  _225
REMARK   88  A    between atoms: _230  and  _232
REMARK   89  A    between atoms: _232  and  _233
REMARK   90  A    between atoms: _232  and  _235
REMARK   91  A    between atoms: _235  and  _236
REMARK   92  A    between atoms: _241  and  _242
REMARK   93  A    between atoms: _244  and  _246
REMARK   94  A    between atoms: _246  and  _247
REMARK   95  A    between atoms: _246  and  _249
REMARK   96  A    between atoms: _249  and  _250
REMARK   97  A    between atoms: _253  and  _255
REMARK   98  A    between atoms: _255  and  _256
REMARK   99  A    between atoms: _255  and  _258
REMARK  100  A    between atoms: _258  and  _259
REMARK  101  A    between atoms: _264  and  _266
REMARK  102  A    between atoms: _266  and  _267
REMARK  103  A    between atoms: _266  and  _269
REMARK  104  A    between atoms: _269  and  _270
REMARK  105  A    between atoms: _275  and  _277
REMARK  106  A    between atoms: _277  and  _278
REMARK  107  A    between atoms: _277  and  _280
REMARK  108  A    between atoms: _280  and  _281
REMARK  109  A    between atoms: _284  and  _286
REMARK  110  A    between atoms: _286  and  _287
REMARK  111  A    between atoms: _286  and  _289
REMARK  112  A    between atoms: _292  and  _294
REMARK  113  A    between atoms: _294  and  _295
REMARK  114  A    between atoms: _294  and  _297
REMARK  115  A    between atoms: _297  and  _298
REMARK  116  A    between atoms: _301  and  _303
REMARK  117  A    between atoms: _303  and  _304
REMARK  118  A    between atoms: _307  and  _309
REMARK  119  A    between atoms: _309  and  _310
REMARK  120  A    between atoms: _309  and  _312
REMARK  121  A    between atoms: _312  and  _313
REMARK  122  A    between atoms: _316  and  _318
REMARK  123  A    between atoms: _318  and  _319
REMARK  124  A    between atoms: _318  and  _321
REMARK  125  A    between atoms: _321  and  _322
REMARK  126  A    between atoms: _322  and  _323
REMARK  127  A    between atoms: _326  and  _328
REMARK  128  A    between atoms: _328  and  _329
REMARK  129  A    between atoms: _328  and  _331
REMARK  130  A    between atoms: _331  and  _332
REMARK  131  A    between atoms: _337  and  _339
REMARK  132  A    between atoms: _339  and  _340
REMARK  133  A    between atoms: _342  and  _344
REMARK  134  A    between atoms: _344  and  _345
REMARK  135  A    between atoms: _344  and  _347
REMARK  136  A    between atoms: _350  and  _352
REMARK  137  A    between atoms: _352  and  _353
REMARK  138  A    between atoms: _356  and  _358
REMARK  139  A    between atoms: _358  and  _359
REMARK  140  A    between atoms: _358  and  _361
REMARK  141  A    between atoms: _361  and  _362
REMARK  142  A    between atoms: _367  and  _369
REMARK  143  A    between atoms: _369  and  _370
REMARK  144  A    between atoms: _369  and  _372
REMARK  145  A    between atoms: _372  and  _373
REMARK  146  A    between atoms: _373  and  _374
REMARK  147  A    between atoms: _374  and  _375
REMARK  148  A    between atoms: _375  and  _376
REMARK  149  A    between atoms: _380  and  _382
REMARK  150  A    between atoms: _382  and  _383
REMARK  151  A    between atoms: _382  and  _385
REMARK  152  A    between atoms: _385  and  _386
REMARK  153  A    between atoms: _389  and  _391
REMARK  154  A    between atoms: _391  and  _392
REMARK  155  A    between atoms: _391  and  _394
REMARK  156  A    between atoms: _394  and  _395
REMARK  157  A    between atoms: _400  and  _402
REMARK  158  A    between atoms: _402  and  _403
REMARK  159  A    between atoms: _405  and  _407
REMARK  160  A    between atoms: _407  and  _408
REMARK  161  A    between atoms: _407  and  _410
REMARK  162  A    between atoms: _410  and  _411
REMARK  163  A    between atoms: _414  and  _416
REMARK  164  A    between atoms: _416  and  _417
REMARK  165  A    between atoms: _416  and  _419
REMARK  166  A    between atoms: _419  and  _420
REMARK  167  A    between atoms: _420  and  _421
REMARK  168  A    between atoms: _421  and  _422
REMARK  169  A    between atoms: _422  and  _423
REMARK  170  A    between atoms: _427  and  _429
REMARK  171  A    between atoms: _429  and  _430
REMARK  172  A    between atoms: _429  and  _432
REMARK  173  A    between atoms: _432  and  _433
REMARK  174  A    between atoms: _433  and  _434
REMARK  175  A    between atoms: _434  and  _435
REMARK  176  A    between atoms: _444  and  _446
REMARK  177  A    between atoms: _446  and  _447
REMARK  178  A    between atoms: _446  and  _449
REMARK  179  A    between atoms: _449  and  _450
REMARK  180  A    between atoms: _455  and  _457
REMARK  181  A    between atoms: _457  and  _458
REMARK  182  A    between atoms: _457  and  _460
REMARK  183  A    between atoms: _460  and  _461
REMARK  184  A    between atoms: _466  and  _467
REMARK  185  A    between atoms: _469  and  _471
REMARK  186  A    between atoms: _471  and  _472
REMARK  187  A    between atoms: _471  and  _474
REMARK  188  A    between atoms: _474  and  _475
REMARK  189  A    between atoms: _475  and  _476
REMARK  190  A    between atoms: _476  and  _477
REMARK  191  A    between atoms: _477  and  _478
REMARK  192  A    between atoms: _482  and  _484
REMARK  193  A    between atoms: _484  and  _485
REMARK  194  A    between atoms: _484  and  _487
REMARK  195  A    between atoms: _487  and  _488
REMARK  196  A    between atoms: _490  and  _492
REMARK  197  A    between atoms: _492  and  _493
REMARK  198  A    between atoms: _492  and  _495
REMARK  199  A    between atoms: _495  and  _496
REMARK  200  A    between atoms: _499  and  _501
REMARK  201  A    between atoms: _501  and  _502
REMARK  202  A    between atoms: _501  and  _504
REMARK  203  A    between atoms: _504  and  _505
REMARK  204  A    between atoms: _505  and  _506
REMARK  205  A    between atoms: _509  and  _511
REMARK  206  A    between atoms: _511  and  _512
REMARK  207  A    between atoms: _515  and  _517
REMARK  208  A    between atoms: _517  and  _518
REMARK  209  A    between atoms: _517  and  _520
REMARK  210  A    between atoms: _520  and  _521
REMARK  211  A    between atoms: _523  and  _525
REMARK  212  A    between atoms: _525  and  _526
REMARK  213  A    between atoms: _528  and  _530
REMARK  214  A    between atoms: _530  and  _531
REMARK  215  A    between atoms: _530  and  _533
REMARK  216  A    between atoms: _533  and  _534
REMARK  217  A    between atoms: _537  and  _539
REMARK  218  A    between atoms: _539  and  _540
REMARK  219  A    between atoms: _542  and  _544
REMARK  220  A    between atoms: _544  and  _545
REMARK  221  A    between atoms: _544  and  _547
REMARK  222  A    between atoms: _547  and  _548
REMARK  223  A    between atoms: _553  and  _555
REMARK  224  A    between atoms: _555  and  _556
REMARK  225  A    between atoms: _555  and  _558
REMARK  226  A    between atoms: _558  and  _559
REMARK  227  A    between atoms: _559  and  _560
REMARK  228  A    between atoms: _567  and  _568
REMARK  229  A    between atoms: _568  and  _584
REMARK  230  A    between atoms: _569  and  _571
REMARK  231  A    between atoms: _571  and  _572
REMARK  232  A    between atoms: _572  and  _573
REMARK  233  A    between atoms: _577  and  _579
REMARK  234  A    between atoms: _579  and  _580
REMARK  235  A    between atoms: _579  and  _587
REMARK  236  A    between atoms: _580  and  _581
REMARK  237  A    between atoms: _581  and  _582
REMARK  238  A    between atoms: _582  and  _583
REMARK  239  A    between atoms: _583  and  _584
REMARK  240  A    between atoms: _589  and  _591
REMARK  241  A    between atoms: _591  and  _592
REMARK  242  A    between atoms: _591  and  _594
REMARK  243  A    between atoms: _594  and  _595
REMARK  244  A    between atoms: _598  and  _600
REMARK  245  A    between atoms: _600  and  _601
REMARK  246  A    between atoms: _603  and  _605
REMARK  247  A    between atoms: _605  and  _606
REMARK  248  A    between atoms: _609  and  _611
REMARK  249  A    between atoms: _611  and  _612
REMARK  250  A    between atoms: _611  and  _614
REMARK  251  A    between atoms: _614  and  _615
REMARK  252  A    between atoms: _618  and  _620
REMARK  253  A    between atoms: _620  and  _621
REMARK  254  A    between atoms: _620  and  _623
REMARK  255  A    between atoms: _623  and  _624
REMARK  256  A    between atoms: _629  and  _630
REMARK                            x       y       z     vdW  Elec       q    Type
REMARK                         _______ _______ _______ _____ _____    ______ ____
ROOT
ATOM      1  O   HOH     1      38.531  24.260  32.462  0.00  0.00    +0.000 OA
ENDROOT
TORSDOF 0
REMARK  Name = ../refined-set-2016/3syr/3syr_pocket.pdb
REMARK  256 active torsions:
REMARK  status: ('A' for Active; 'I' for Inactive)
REMARK    1  A    between atoms: _1  and  _3
REMARK    2  A    between atoms: _3  and  _4
REMARK    3  A    between atoms: _3  and  _6
REMARK    4  A    between atoms: _6  and  _7
REMARK    5  A    between atoms: _12  and  _13
REMARK    6  A    between atoms: _15  and  _17
REMARK    7  A    between atoms: _17  and  _18
REMARK    8  A    between atoms: _17  and  _20
REMARK    9  A    between atoms: _20  and  _21
REMARK   10  A    between atoms: _21  and  _22
REMARK   11  A    between atoms: _25  and  _27
REMARK   12  A    between atoms: _27  and  _28
REMARK   13  A    between atoms: _27  and  _30
REMARK   14  A    between atoms: _30  and  _31
REMARK   15  A    between atoms: _36  and  _37
REMARK   16  A    between atoms: _39  and  _41
REMARK   17  A    between atoms: _41  and  _42
REMARK   18  A    between atoms: _41  and  _44
REMARK   19  A    between atoms: _44  and  _45
REMARK   20  A    between atoms: _50  and  _52
REMARK   21  A    between atoms: _52  and  _53
REMARK   22  A    between atoms: _55  and  _57
REMARK   23  A    between atoms: _57  and  _58
REMARK   24  A    between atoms: _60  and  _62
REMARK   25  A    between atoms: _62  and  _63
REMARK   26  A    between atoms: _62  and  _65
REMARK   27  A    between atoms: _65  and  _66
REMARK   28  A    between atoms: _69  and  _71
REMARK   29  A    between atoms: _71  and  _72
REMARK   30  A    between atoms: _74  and  _76
REMARK   31  A    between atoms: _76  and  _77
REMARK   32  A    between atoms: _76  and  _79
REMARK   33  A    between atoms: _79  and  _80
REMARK   34  A    between atoms: _80  and  _81
REMARK   35  A    between atoms: _81  and  _82
REMARK   36  A    between atoms: _91  and  _93
REMARK   37  A    between atoms: _93  and  _94
REMARK   38  A    between atoms: _93  and  _96
REMARK   39  A    between atoms: _96  and  _97
REMARK   40  A    between atoms: _100  and  _102
REMARK   41  A    between atoms: _102  and  _103
REMARK   42  A    between atoms: _106  and  _108
REMARK   43  A    between atoms: _108  and  _109
REMARK   44  A    between atoms: _108  and  _111
REMARK   45  A    between atoms: _111  and  _112
REMARK   46  A    between atoms: _118  and  _120
REMARK   47  A    between atoms: _120  and  _121
REMARK   48  A    between atoms: _120  and  _123
REMARK   49  A    between atoms: _123  and  _124
REMARK   50  A    between atoms: _129  and  _131
REMARK   51  A    between atoms: _131  and  _132
REMARK   52  A    between atoms: _131  and  _134
REMARK   53  A    between atoms: _134  and  _135
REMARK   54  A    between atoms: _138  and  _140
REMARK   55  A    between atoms: _140  and  _141
REMARK   56  A    between atoms: _140  and  _143
REMARK   57  A    between atoms: _143  and  _144
REMARK   58  A    between atoms: _149  and  _151
REMARK   59  A    between atoms: _151  and  _152
REMARK   60  A    between atoms: _151  and  _154
REMARK   61  A    between atoms: _154  and  _155
REMARK   62  A    between atoms: _161  and  _163
REMARK   63  A    between atoms: _163  and  _164
REMARK   64  A    between atoms: _163  and  _166
REMARK   65  A    between atoms: _166  and  _167
REMARK   66  A    between atoms: _173  and  _175
REMARK   67  A    between atoms: _175  and  _176
REMARK   68  A    between atoms: _175  and  _178
REMARK   69  A    between atoms: _178  and  _179
REMARK   70  A    between atoms: _179  and  _180
REMARK   71  A    between atoms: _180  and  _181
REMARK   72  A    between atoms: _190  and  _192
REMARK   73  A    between atoms: _192  and  _193
REMARK   74  A    between atoms: _192  and  _195
REMARK   75  A    between atoms: _195  and  _196
REMARK   76  A    between atoms: _201  and  _203
REMARK   77  A    between atoms: _203  and  _204
REMARK   78  A    between atoms: _203  and  _206
REMARK   79  A    between atoms: _206  and  _207
REMARK   80  A    between atoms: _210  and  _212
REMARK   81  A    between atoms: _212  and  _213
REMARK   82  A    between atoms: _212  and  _215
REMARK   83  A    between atoms: _215  and  _216
REMARK   84  A    between atoms: _219  and  _221
REMARK   85  A    between atoms: _221  and  _222
REMARK   86  A    between atoms: _221  and  _224
REMARK   87  A    between atoms: _224  and  _225
REMARK   88  A    between atoms: _230  and  _232
REMARK   89  A    between atoms: _232  and  _233
REMARK   90  A    between atoms: _232  and  _235
REMARK   91  A    between atoms: _235  and  _236
REMARK   92  A    between atoms: _241  and  _242
REMARK   93  A    between atoms: _244  and  _246
REMARK   94  A    between atoms: _246  and  _247
REMARK   95  A    between atoms: _246  and  _249
REMARK   96  A    between atoms: _249  and  _250
REMARK   97  A    between atoms: _253  and  _255
REMARK   98  A    between atoms: _255  and  _256
REMARK   99  A    between atoms: _255  and  _258
REMARK  100  A    between atoms: _258  and  _259
REMARK  101  A    between atoms: _264  and  _266
REMARK  102  A    between atoms: _266  and  _267
REMARK  103  A    between atoms: _266  and  _269
REMARK  104  A    between atoms: _269  and  _270
REMARK  105  A    between atoms: _275  and  _277
REMARK  106  A    between atoms: _277  and  _278
REMARK  107  A    between atoms: _277  and  _280
REMARK  108  A    between atoms: _280  and  _281
REMARK  109  A    between atoms: _284  and  _286
REMARK  110  A    between atoms: _286  and  _287
REMARK  111  A    between atoms: _286  and  _289
REMARK  112  A    between atoms: _292  and  _294
REMARK  113  A    between atoms: _294  and  _295
REMARK  114  A    between atoms: _294  and  _297
REMARK  115  A    between atoms: _297  and  _298
REMARK  116  A    between atoms: _301  and  _303
REMARK  117  A    between atoms: _303  and  _304
REMARK  118  A    between atoms: _307  and  _309
REMARK  119  A    between atoms: _309  and  _310
REMARK  120  A    between atoms: _309  and  _312
REMARK  121  A    between atoms: _312  and  _313
REMARK  122  A    between atoms: _316  and  _318
REMARK  123  A    between atoms: _318  and  _319
REMARK  124  A    between atoms: _318  and  _321
REMARK  125  A    between atoms: _321  and  _322
REMARK  126  A    between atoms: _322  and  _323
REMARK  127  A    between atoms: _326  and  _328
REMARK  128  A    between atoms: _328  and  _329
REMARK  129  A    between atoms: _328  and  _331
REMARK  130  A    between atoms: _331  and  _332
REMARK  131  A    between atoms: _337  and  _339
REMARK  132  A    between atoms: _339  and  _340
REMARK  133  A    between atoms: _342  and  _344
REMARK  134  A    between atoms: _344  and  _345
REMARK  135  A    between atoms: _344  and  _347
REMARK  136  A    between atoms: _350  and  _352
REMARK  137  A    between atoms: _352  and  _353
REMARK  138  A    between atoms: _356  and  _358
REMARK  139  A    between atoms: _358  and  _359
REMARK  140  A    between atoms: _358  and  _361
REMARK  141  A    between atoms: _361  and  _362
REMARK  142  A    between atoms: _367  and  _369
REMARK  143  A    between atoms: _369  and  _370
REMARK  144  A    between atoms: _369  and  _372
REMARK  145  A    between atoms: _372  and  _373
REMARK  146  A    between atoms: _373  and  _374
REMARK  147  A    between atoms: _374  and  _375
REMARK  148  A    between atoms: _375  and  _376
REMARK  149  A    between atoms: _380  and  _382
REMARK  150  A    between atoms: _382  and  _383
REMARK  151  A    between atoms: _382  and  _385
REMARK  152  A    between atoms: _385  and  _386
REMARK  153  A    between atoms: _389  and  _391
REMARK  154  A    between atoms: _391  and  _392
REMARK  155  A    between atoms: _391  and  _394
REMARK  156  A    between atoms: _394  and  _395
REMARK  157  A    between atoms: _400  and  _402
REMARK  158  A    between atoms: _402  and  _403
REMARK  159  A    between atoms: _405  and  _407
REMARK  160  A    between atoms: _407  and  _408
REMARK  161  A    between atoms: _407  and  _410
REMARK  162  A    between atoms: _410  and  _411
REMARK  163  A    between atoms: _414  and  _416
REMARK  164  A    between atoms: _416  and  _417
REMARK  165  A    between atoms: _416  and  _419
REMARK  166  A    between atoms: _419  and  _420
REMARK  167  A    between atoms: _420  and  _421
REMARK  168  A    between atoms: _421  and  _422
REMARK  169  A    between atoms: _422  and  _423
REMARK  170  A    between atoms: _427  and  _429
REMARK  171  A    between atoms: _429  and  _430
REMARK  172  A    between atoms: _429  and  _432
REMARK  173  A    between atoms: _432  and  _433
REMARK  174  A    between atoms: _433  and  _434
REMARK  175  A    between atoms: _434  and  _435
REMARK  176  A    between atoms: _444  and  _446
REMARK  177  A    between atoms: _446  and  _447
REMARK  178  A    between atoms: _446  and  _449
REMARK  179  A    between atoms: _449  and  _450
REMARK  180  A    between atoms: _455  and  _457
REMARK  181  A    between atoms: _457  and  _458
REMARK  182  A    between atoms: _457  and  _460
REMARK  183  A    between atoms: _460  and  _461
REMARK  184  A    between atoms: _466  and  _467
REMARK  185  A    between atoms: _469  and  _471
REMARK  186  A    between atoms: _471  and  _472
REMARK  187  A    between atoms: _471  and  _474
REMARK  188  A    between atoms: _474  and  _475
REMARK  189  A    between atoms: _475  and  _476
REMARK  190  A    between atoms: _476  and  _477
REMARK  191  A    between atoms: _477  and  _478
REMARK  192  A    between atoms: _482  and  _484
REMARK  193  A    between atoms: _484  and  _485
REMARK  194  A    between atoms: _484  and  _487
REMARK  195  A    between atoms: _487  and  _488
REMARK  196  A    between atoms: _490  and  _492
REMARK  197  A    between atoms: _492  and  _493
REMARK  198  A    between atoms: _492  and  _495
REMARK  199  A    between atoms: _495  and  _496
REMARK  200  A    between atoms: _499  and  _501
REMARK  201  A    between atoms: _501  and  _502
REMARK  202  A    between atoms: _501  and  _504
REMARK  203  A    between atoms: _504  and  _505
REMARK  204  A    between atoms: _505  and  _506
REMARK  205  A    between atoms: _509  and  _511
REMARK  206  A    between atoms: _511  and  _512
REMARK  207  A    between atoms: _515  and  _517
REMARK  208  A    between atoms: _517  and  _518
REMARK  209  A    between atoms: _517  and  _520
REMARK  210  A    between atoms: _520  and  _521
REMARK  211  A    between atoms: _523  and  _525
REMARK  212  A    between atoms: _525  and  _526
REMARK  213  A    between atoms: _528  and  _530
REMARK  214  A    between atoms: _530  and  _531
REMARK  215  A    between atoms: _530  and  _533
REMARK  216  A    between atoms: _533  and  _534
REMARK  217  A    between atoms: _537  and  _539
REMARK  218  A    between atoms: _539  and  _540
REMARK  219  A    between atoms: _542  and  _544
REMARK  220  A    between atoms: _544  and  _545
REMARK  221  A    between atoms: _544  and  _547
REMARK  222  A    between atoms: _547  and  _548
REMARK  223  A    between atoms: _553  and  _555
REMARK  224  A    between atoms: _555  and  _556
REMARK  225  A    between atoms: _555  and  _558
REMARK  226  A    between atoms: _558  and  _559
REMARK  227  A    between atoms: _559  and  _560
REMARK  228  A    between atoms: _567  and  _568
REMARK  229  A    between atoms: _568  and  _584
REMARK  230  A    between atoms: _569  and  _571
REMARK  231  A    between atoms: _571  and  _572
REMARK  232  A    between atoms: _572  and  _573
REMARK  233  A    between atoms: _577  and  _579
REMARK  234  A    between atoms: _579  and  _580
REMARK  235  A    between atoms: _579  and  _587
REMARK  236  A    between atoms: _580  and  _581
REMARK  237  A    between atoms: _581  and  _582
REMARK  238  A    between atoms: _582  and  _583
REMARK  239  A    between atoms: _583  and  _584
REMARK  240  A    between atoms: _589  and  _591
REMARK  241  A    between atoms: _591  and  _592
REMARK  242  A    between atoms: _591  and  _594
REMARK  243  A    between atoms: _594  and  _595
REMARK  244  A    between atoms: _598  and  _600
REMARK  245  A    between atoms: _600  and  _601
REMARK  246  A    between atoms: _603  and  _605
REMARK  247  A    between atoms: _605  and  _606
REMARK  248  A    between atoms: _609  and  _611
REMARK  249  A    between atoms: _611  and  _612
REMARK  250  A    between atoms: _611  and  _614
REMARK  251  A    between atoms: _614  and  _615
REMARK  252  A    between atoms: _618  and  _620
REMARK  253  A    between atoms: _620  and  _621
REMARK  254  A    between atoms: _620  and  _623
REMARK  255  A    between atoms: _623  and  _624
REMARK  256  A    between atoms: _629  and  _630
REMARK                            x       y       z     vdW  Elec       q    Type
REMARK                         _______ _______ _______ _____ _____    ______ ____
ROOT
ATOM      1  O   HOH     1      36.047  24.473  24.176  0.00  0.00    +0.000 OA
ENDROOT
TORSDOF 0
REMARK  Name = ../refined-set-2016/3syr/3syr_pocket.pdb
REMARK  256 active torsions:
REMARK  status: ('A' for Active; 'I' for Inactive)
REMARK    1  A    between atoms: _1  and  _3
REMARK    2  A    between atoms: _3  and  _4
REMARK    3  A    between atoms: _3  and  _6
REMARK    4  A    between atoms: _6  and  _7
REMARK    5  A    between atoms: _12  and  _13
REMARK    6  A    between atoms: _15  and  _17
REMARK    7  A    between atoms: _17  and  _18
REMARK    8  A    between atoms: _17  and  _20
REMARK    9  A    between atoms: _20  and  _21
REMARK   10  A    between atoms: _21  and  _22
REMARK   11  A    between atoms: _25  and  _27
REMARK   12  A    between atoms: _27  and  _28
REMARK   13  A    between atoms: _27  and  _30
REMARK   14  A    between atoms: _30  and  _31
REMARK   15  A    between atoms: _36  and  _37
REMARK   16  A    between atoms: _39  and  _41
REMARK   17  A    between atoms: _41  and  _42
REMARK   18  A    between atoms: _41  and  _44
REMARK   19  A    between atoms: _44  and  _45
REMARK   20  A    between atoms: _50  and  _52
REMARK   21  A    between atoms: _52  and  _53
REMARK   22  A    between atoms: _55  and  _57
REMARK   23  A    between atoms: _57  and  _58
REMARK   24  A    between atoms: _60  and  _62
REMARK   25  A    between atoms: _62  and  _63
REMARK   26  A    between atoms: _62  and  _65
REMARK   27  A    between atoms: _65  and  _66
REMARK   28  A    between atoms: _69  and  _71
REMARK   29  A    between atoms: _71  and  _72
REMARK   30  A    between atoms: _74  and  _76
REMARK   31  A    between atoms: _76  and  _77
REMARK   32  A    between atoms: _76  and  _79
REMARK   33  A    between atoms: _79  and  _80
REMARK   34  A    between atoms: _80  and  _81
REMARK   35  A    between atoms: _81  and  _82
REMARK   36  A    between atoms: _91  and  _93
REMARK   37  A    between atoms: _93  and  _94
REMARK   38  A    between atoms: _93  and  _96
REMARK   39  A    between atoms: _96  and  _97
REMARK   40  A    between atoms: _100  and  _102
REMARK   41  A    between atoms: _102  and  _103
REMARK   42  A    between atoms: _106  and  _108
REMARK   43  A    between atoms: _108  and  _109
REMARK   44  A    between atoms: _108  and  _111
REMARK   45  A    between atoms: _111  and  _112
REMARK   46  A    between atoms: _118  and  _120
REMARK   47  A    between atoms: _120  and  _121
REMARK   48  A    between atoms: _120  and  _123
REMARK   49  A    between atoms: _123  and  _124
REMARK   50  A    between atoms: _129  and  _131
REMARK   51  A    between atoms: _131  and  _132
REMARK   52  A    between atoms: _131  and  _134
REMARK   53  A    between atoms: _134  and  _135
REMARK   54  A    between atoms: _138  and  _140
REMARK   55  A    between atoms: _140  and  _141
REMARK   56  A    between atoms: _140  and  _143
REMARK   57  A    between atoms: _143  and  _144
REMARK   58  A    between atoms: _149  and  _151
REMARK   59  A    between atoms: _151  and  _152
REMARK   60  A    between atoms: _151  and  _154
REMARK   61  A    between atoms: _154  and  _155
REMARK   62  A    between atoms: _161  and  _163
REMARK   63  A    between atoms: _163  and  _164
REMARK   64  A    between atoms: _163  and  _166
REMARK   65  A    between atoms: _166  and  _167
REMARK   66  A    between atoms: _173  and  _175
REMARK   67  A    between atoms: _175  and  _176
REMARK   68  A    between atoms: _175  and  _178
REMARK   69  A    between atoms: _178  and  _179
REMARK   70  A    between atoms: _179  and  _180
REMARK   71  A    between atoms: _180  and  _181
REMARK   72  A    between atoms: _190  and  _192
REMARK   73  A    between atoms: _192  and  _193
REMARK   74  A    between atoms: _192  and  _195
REMARK   75  A    between atoms: _195  and  _196
REMARK   76  A    between atoms: _201  and  _203
REMARK   77  A    between atoms: _203  and  _204
REMARK   78  A    between atoms: _203  and  _206
REMARK   79  A    between atoms: _206  and  _207
REMARK   80  A    between atoms: _210  and  _212
REMARK   81  A    between atoms: _212  and  _213
REMARK   82  A    between atoms: _212  and  _215
REMARK   83  A    between atoms: _215  and  _216
REMARK   84  A    between atoms: _219  and  _221
REMARK   85  A    between atoms: _221  and  _222
REMARK   86  A    between atoms: _221  and  _224
REMARK   87  A    between atoms: _224  and  _225
REMARK   88  A    between atoms: _230  and  _232
REMARK   89  A    between atoms: _232  and  _233
REMARK   90  A    between atoms: _232  and  _235
REMARK   91  A    between atoms: _235  and  _236
REMARK   92  A    between atoms: _241  and  _242
REMARK   93  A    between atoms: _244  and  _246
REMARK   94  A    between atoms: _246  and  _247
REMARK   95  A    between atoms: _246  and  _249
REMARK   96  A    between atoms: _249  and  _250
REMARK   97  A    between atoms: _253  and  _255
REMARK   98  A    between atoms: _255  and  _256
REMARK   99  A    between atoms: _255  and  _258
REMARK  100  A    between atoms: _258  and  _259
REMARK  101  A    between atoms: _264  and  _266
REMARK  102  A    between atoms: _266  and  _267
REMARK  103  A    between atoms: _266  and  _269
REMARK  104  A    between atoms: _269  and  _270
REMARK  105  A    between atoms: _275  and  _277
REMARK  106  A    between atoms: _277  and  _278
REMARK  107  A    between atoms: _277  and  _280
REMARK  108  A    between atoms: _280  and  _281
REMARK  109  A    between atoms: _284  and  _286
REMARK  110  A    between atoms: _286  and  _287
REMARK  111  A    between atoms: _286  and  _289
REMARK  112  A    between atoms: _292  and  _294
REMARK  113  A    between atoms: _294  and  _295
REMARK  114  A    between atoms: _294  and  _297
REMARK  115  A    between atoms: _297  and  _298
REMARK  116  A    between atoms: _301  and  _303
REMARK  117  A    between atoms: _303  and  _304
REMARK  118  A    between atoms: _307  and  _309
REMARK  119  A    between atoms: _309  and  _310
REMARK  120  A    between atoms: _309  and  _312
REMARK  121  A    between atoms: _312  and  _313
REMARK  122  A    between atoms: _316  and  _318
REMARK  123  A    between atoms: _318  and  _319
REMARK  124  A    between atoms: _318  and  _321
REMARK  125  A    between atoms: _321  and  _322
REMARK  126  A    between atoms: _322  and  _323
REMARK  127  A    between atoms: _326  and  _328
REMARK  128  A    between atoms: _328  and  _329
REMARK  129  A    between atoms: _328  and  _331
REMARK  130  A    between atoms: _331  and  _332
REMARK  131  A    between atoms: _337  and  _339
REMARK  132  A    between atoms: _339  and  _340
REMARK  133  A    between atoms: _342  and  _344
REMARK  134  A    between atoms: _344  and  _345
REMARK  135  A    between atoms: _344  and  _347
REMARK  136  A    between atoms: _350  and  _352
REMARK  137  A    between atoms: _352  and  _353
REMARK  138  A    between atoms: _356  and  _358
REMARK  139  A    between atoms: _358  and  _359
REMARK  140  A    between atoms: _358  and  _361
REMARK  141  A    between atoms: _361  and  _362
REMARK  142  A    between atoms: _367  and  _369
REMARK  143  A    between atoms: _369  and  _370
REMARK  144  A    between atoms: _369  and  _372
REMARK  145  A    between atoms: _372  and  _373
REMARK  146  A    between atoms: _373  and  _374
REMARK  147  A    between atoms: _374  and  _375
REMARK  148  A    between atoms: _375  and  _376
REMARK  149  A    between atoms: _380  and  _382
REMARK  150  A    between atoms: _382  and  _383
REMARK  151  A    between atoms: _382  and  _385
REMARK  152  A    between atoms: _385  and  _386
REMARK  153  A    between atoms: _389  and  _391
REMARK  154  A    between atoms: _391  and  _392
REMARK  155  A    between atoms: _391  and  _394
REMARK  156  A    between atoms: _394  and  _395
REMARK  157  A    between atoms: _400  and  _402
REMARK  158  A    between atoms: _402  and  _403
REMARK  159  A    between atoms: _405  and  _407
REMARK  160  A    between atoms: _407  and  _408
REMARK  161  A    between atoms: _407  and  _410
REMARK  162  A    between atoms: _410  and  _411
REMARK  163  A    between atoms: _414  and  _416
REMARK  164  A    between atoms: _416  and  _417
REMARK  165  A    between atoms: _416  and  _419
REMARK  166  A    between atoms: _419  and  _420
REMARK  167  A    between atoms: _420  and  _421
REMARK  168  A    between atoms: _421  and  _422
REMARK  169  A    between atoms: _422  and  _423
REMARK  170  A    between atoms: _427  and  _429
REMARK  171  A    between atoms: _429  and  _430
REMARK  172  A    between atoms: _429  and  _432
REMARK  173  A    between atoms: _432  and  _433
REMARK  174  A    between atoms: _433  and  _434
REMARK  175  A    between atoms: _434  and  _435
REMARK  176  A    between atoms: _444  and  _446
REMARK  177  A    between atoms: _446  and  _447
REMARK  178  A    between atoms: _446  and  _449
REMARK  179  A    between atoms: _449  and  _450
REMARK  180  A    between atoms: _455  and  _457
REMARK  181  A    between atoms: _457  and  _458
REMARK  182  A    between atoms: _457  and  _460
REMARK  183  A    between atoms: _460  and  _461
REMARK  184  A    between atoms: _466  and  _467
REMARK  185  A    between atoms: _469  and  _471
REMARK  186  A    between atoms: _471  and  _472
REMARK  187  A    between atoms: _471  and  _474
REMARK  188  A    between atoms: _474  and  _475
REMARK  189  A    between atoms: _475  and  _476
REMARK  190  A    between atoms: _476  and  _477
REMARK  191  A    between atoms: _477  and  _478
REMARK  192  A    between atoms: _482  and  _484
REMARK  193  A    between atoms: _484  and  _485
REMARK  194  A    between atoms: _484  and  _487
REMARK  195  A    between atoms: _487  and  _488
REMARK  196  A    between atoms: _490  and  _492
REMARK  197  A    between atoms: _492  and  _493
REMARK  198  A    between atoms: _492  and  _495
REMARK  199  A    between atoms: _495  and  _496
REMARK  200  A    between atoms: _499  and  _501
REMARK  201  A    between atoms: _501  and  _502
REMARK  202  A    between atoms: _501  and  _504
REMARK  203  A    between atoms: _504  and  _505
REMARK  204  A    between atoms: _505  and  _506
REMARK  205  A    between atoms: _509  and  _511
REMARK  206  A    between atoms: _511  and  _512
REMARK  207  A    between atoms: _515  and  _517
REMARK  208  A    between atoms: _517  and  _518
REMARK  209  A    between atoms: _517  and  _520
REMARK  210  A    between atoms: _520  and  _521
REMARK  211  A    between atoms: _523  and  _525
REMARK  212  A    between atoms: _525  and  _526
REMARK  213  A    between atoms: _528  and  _530
REMARK  214  A    between atoms: _530  and  _531
REMARK  215  A    between atoms: _530  and  _533
REMARK  216  A    between atoms: _533  and  _534
REMARK  217  A    between atoms: _537  and  _539
REMARK  218  A    between atoms: _539  and  _540
REMARK  219  A    between atoms: _542  and  _544
REMARK  220  A    between atoms: _544  and  _545
REMARK  221  A    between atoms: _544  and  _547
REMARK  222  A    between atoms: _547  and  _548
REMARK  223  A    between atoms: _553  and  _555
REMARK  224  A    between atoms: _555  and  _556
REMARK  225  A    between atoms: _555  and  _558
REMARK  226  A    between atoms: _558  and  _559
REMARK  227  A    between atoms: _559  and  _560
REMARK  228  A    between atoms: _567  and  _568
REMARK  229  A    between atoms: _568  and  _584
REMARK  230  A    between atoms: _569  and  _571
REMARK  231  A    between atoms: _571  and  _572
REMARK  232  A    between atoms: _572  and  _573
REMARK  233  A    between atoms: _577  and  _579
REMARK  234  A    between atoms: _579  and  _580
REMARK  235  A    between atoms: _579  and  _587
REMARK  236  A    between atoms: _580  and  _581
REMARK  237  A    between atoms: _581  and  _582
REMARK  238  A    between atoms: _582  and  _583
REMARK  239  A    between atoms: _583  and  _584
REMARK  240  A    between atoms: _589  and  _591
REMARK  241  A    between atoms: _591  and  _592
REMARK  242  A    between atoms: _591  and  _594
REMARK  243  A    between atoms: _594  and  _595
REMARK  244  A    between atoms: _598  and  _600
REMARK  245  A    between atoms: _600  and  _601
REMARK  246  A    between atoms: _603  and  _605
REMARK  247  A    between atoms: _605  and  _606
REMARK  248  A    between atoms: _609  and  _611
REMARK  249  A    between atoms: _611  and  _612
REMARK  250  A    between atoms: _611  and  _614
REMARK  251  A    between atoms: _614  and  _615
REMARK  252  A    between atoms: _618  and  _620
REMARK  253  A    between atoms: _620  and  _621
REMARK  254  A    between atoms: _620  and  _623
REMARK  255  A    between atoms: _623  and  _624
REMARK  256  A    between atoms: _629  and  _630
REMARK                            x       y       z     vdW  Elec       q    Type
REMARK                         _______ _______ _______ _____ _____    ______ ____
ROOT
ATOM      1  O   HOH     1      29.603  23.136  18.627  0.00  0.00    +0.000 OA
ENDROOT
TORSDOF 0
REMARK  Name = ../refined-set-2016/3syr/3syr_pocket.pdb
REMARK  256 active torsions:
REMARK  status: ('A' for Active; 'I' for Inactive)
REMARK    1  A    between atoms: _1  and  _3
REMARK    2  A    between atoms: _3  and  _4
REMARK    3  A    between atoms: _3  and  _6
REMARK    4  A    between atoms: _6  and  _7
REMARK    5  A    between atoms: _12  and  _13
REMARK    6  A    between atoms: _15  and  _17
REMARK    7  A    between atoms: _17  and  _18
REMARK    8  A    between atoms: _17  and  _20
REMARK    9  A    between atoms: _20  and  _21
REMARK   10  A    between atoms: _21  and  _22
REMARK   11  A    between atoms: _25  and  _27
REMARK   12  A    between atoms: _27  and  _28
REMARK   13  A    between atoms: _27  and  _30
REMARK   14  A    between atoms: _30  and  _31
REMARK   15  A    between atoms: _36  and  _37
REMARK   16  A    between atoms: _39  and  _41
REMARK   17  A    between atoms: _41  and  _42
REMARK   18  A    between atoms: _41  and  _44
REMARK   19  A    between atoms: _44  and  _45
REMARK   20  A    between atoms: _50  and  _52
REMARK   21  A    between atoms: _52  and  _53
REMARK   22  A    between atoms: _55  and  _57
REMARK   23  A    between atoms: _57  and  _58
REMARK   24  A    between atoms: _60  and  _62
REMARK   25  A    between atoms: _62  and  _63
REMARK   26  A    between atoms: _62  and  _65
REMARK   27  A    between atoms: _65  and  _66
REMARK   28  A    between atoms: _69  and  _71
REMARK   29  A    between atoms: _71  and  _72
REMARK   30  A    between atoms: _74  and  _76
REMARK   31  A    between atoms: _76  and  _77
REMARK   32  A    between atoms: _76  and  _79
REMARK   33  A    between atoms: _79  and  _80
REMARK   34  A    between atoms: _80  and  _81
REMARK   35  A    between atoms: _81  and  _82
REMARK   36  A    between atoms: _91  and  _93
REMARK   37  A    between atoms: _93  and  _94
REMARK   38  A    between atoms: _93  and  _96
REMARK   39  A    between atoms: _96  and  _97
REMARK   40  A    between atoms: _100  and  _102
REMARK   41  A    between atoms: _102  and  _103
REMARK   42  A    between atoms: _106  and  _108
REMARK   43  A    between atoms: _108  and  _109
REMARK   44  A    between atoms: _108  and  _111
REMARK   45  A    between atoms: _111  and  _112
REMARK   46  A    between atoms: _118  and  _120
REMARK   47  A    between atoms: _120  and  _121
REMARK   48  A    between atoms: _120  and  _123
REMARK   49  A    between atoms: _123  and  _124
REMARK   50  A    between atoms: _129  and  _131
REMARK   51  A    between atoms: _131  and  _132
REMARK   52  A    between atoms: _131  and  _134
REMARK   53  A    between atoms: _134  and  _135
REMARK   54  A    between atoms: _138  and  _140
REMARK   55  A    between atoms: _140  and  _141
REMARK   56  A    between atoms: _140  and  _143
REMARK   57  A    between atoms: _143  and  _144
REMARK   58  A    between atoms: _149  and  _151
REMARK   59  A    between atoms: _151  and  _152
REMARK   60  A    between atoms: _151  and  _154
REMARK   61  A    between atoms: _154  and  _155
REMARK   62  A    between atoms: _161  and  _163
REMARK   63  A    between atoms: _163  and  _164
REMARK   64  A    between atoms: _163  and  _166
REMARK   65  A    between atoms: _166  and  _167
REMARK   66  A    between atoms: _173  and  _175
REMARK   67  A    between atoms: _175  and  _176
REMARK   68  A    between atoms: _175  and  _178
REMARK   69  A    between atoms: _178  and  _179
REMARK   70  A    between atoms: _179  and  _180
REMARK   71  A    between atoms: _180  and  _181
REMARK   72  A    between atoms: _190  and  _192
REMARK   73  A    between atoms: _192  and  _193
REMARK   74  A    between atoms: _192  and  _195
REMARK   75  A    between atoms: _195  and  _196
REMARK   76  A    between atoms: _201  and  _203
REMARK   77  A    between atoms: _203  and  _204
REMARK   78  A    between atoms: _203  and  _206
REMARK   79  A    between atoms: _206  and  _207
REMARK   80  A    between atoms: _210  and  _212
REMARK   81  A    between atoms: _212  and  _213
REMARK   82  A    between atoms: _212  and  _215
REMARK   83  A    between atoms: _215  and  _216
REMARK   84  A    between atoms: _219  and  _221
REMARK   85  A    between atoms: _221  and  _222
REMARK   86  A    between atoms: _221  and  _224
REMARK   87  A    between atoms: _224  and  _225
REMARK   88  A    between atoms: _230  and  _232
REMARK   89  A    between atoms: _232  and  _233
REMARK   90  A    between atoms: _232  and  _235
REMARK   91  A    between atoms: _235  and  _236
REMARK   92  A    between atoms: _241  and  _242
REMARK   93  A    between atoms: _244  and  _246
REMARK   94  A    between atoms: _246  and  _247
REMARK   95  A    between atoms: _246  and  _249
REMARK   96  A    between atoms: _249  and  _250
REMARK   97  A    between atoms: _253  and  _255
REMARK   98  A    between atoms: _255  and  _256
REMARK   99  A    between atoms: _255  and  _258
REMARK  100  A    between atoms: _258  and  _259
REMARK  101  A    between atoms: _264  and  _266
REMARK  102  A    between atoms: _266  and  _267
REMARK  103  A    between atoms: _266  and  _269
REMARK  104  A    between atoms: _269  and  _270
REMARK  105  A    between atoms: _275  and  _277
REMARK  106  A    between atoms: _277  and  _278
REMARK  107  A    between atoms: _277  and  _280
REMARK  108  A    between atoms: _280  and  _281
REMARK  109  A    between atoms: _284  and  _286
REMARK  110  A    between atoms: _286  and  _287
REMARK  111  A    between atoms: _286  and  _289
REMARK  112  A    between atoms: _292  and  _294
REMARK  113  A    between atoms: _294  and  _295
REMARK  114  A    between atoms: _294  and  _297
REMARK  115  A    between atoms: _297  and  _298
REMARK  116  A    between atoms: _301  and  _303
REMARK  117  A    between atoms: _303  and  _304
REMARK  118  A    between atoms: _307  and  _309
REMARK  119  A    between atoms: _309  and  _310
REMARK  120  A    between atoms: _309  and  _312
REMARK  121  A    between atoms: _312  and  _313
REMARK  122  A    between atoms: _316  and  _318
REMARK  123  A    between atoms: _318  and  _319
REMARK  124  A    between atoms: _318  and  _321
REMARK  125  A    between atoms: _321  and  _322
REMARK  126  A    between atoms: _322  and  _323
REMARK  127  A    between atoms: _326  and  _328
REMARK  128  A    between atoms: _328  and  _329
REMARK  129  A    between atoms: _328  and  _331
REMARK  130  A    between atoms: _331  and  _332
REMARK  131  A    between atoms: _337  and  _339
REMARK  132  A    between atoms: _339  and  _340
REMARK  133  A    between atoms: _342  and  _344
REMARK  134  A    between atoms: _344  and  _345
REMARK  135  A    between atoms: _344  and  _347
REMARK  136  A    between atoms: _350  and  _352
REMARK  137  A    between atoms: _352  and  _353
REMARK  138  A    between atoms: _356  and  _358
REMARK  139  A    between atoms: _358  and  _359
REMARK  140  A    between atoms: _358  and  _361
REMARK  141  A    between atoms: _361  and  _362
REMARK  142  A    between atoms: _367  and  _369
REMARK  143  A    between atoms: _369  and  _370
REMARK  144  A    between atoms: _369  and  _372
REMARK  145  A    between atoms: _372  and  _373
REMARK  146  A    between atoms: _373  and  _374
REMARK  147  A    between atoms: _374  and  _375
REMARK  148  A    between atoms: _375  and  _376
REMARK  149  A    between atoms: _380  and  _382
REMARK  150  A    between atoms: _382  and  _383
REMARK  151  A    between atoms: _382  and  _385
REMARK  152  A    between atoms: _385  and  _386
REMARK  153  A    between atoms: _389  and  _391
REMARK  154  A    between atoms: _391  and  _392
REMARK  155  A    between atoms: _391  and  _394
REMARK  156  A    between atoms: _394  and  _395
REMARK  157  A    between atoms: _400  and  _402
REMARK  158  A    between atoms: _402  and  _403
REMARK  159  A    between atoms: _405  and  _407
REMARK  160  A    between atoms: _407  and  _408
REMARK  161  A    between atoms: _407  and  _410
REMARK  162  A    between atoms: _410  and  _411
REMARK  163  A    between atoms: _414  and  _416
REMARK  164  A    between atoms: _416  and  _417
REMARK  165  A    between atoms: _416  and  _419
REMARK  166  A    between atoms: _419  and  _420
REMARK  167  A    between atoms: _420  and  _421
REMARK  168  A    between atoms: _421  and  _422
REMARK  169  A    between atoms: _422  and  _423
REMARK  170  A    between atoms: _427  and  _429
REMARK  171  A    between atoms: _429  and  _430
REMARK  172  A    between atoms: _429  and  _432
REMARK  173  A    between atoms: _432  and  _433
REMARK  174  A    between atoms: _433  and  _434
REMARK  175  A    between atoms: _434  and  _435
REMARK  176  A    between atoms: _444  and  _446
REMARK  177  A    between atoms: _446  and  _447
REMARK  178  A    between atoms: _446  and  _449
REMARK  179  A    between atoms: _449  and  _450
REMARK  180  A    between atoms: _455  and  _457
REMARK  181  A    between atoms: _457  and  _458
REMARK  182  A    between atoms: _457  and  _460
REMARK  183  A    between atoms: _460  and  _461
REMARK  184  A    between atoms: _466  and  _467
REMARK  185  A    between atoms: _469  and  _471
REMARK  186  A    between atoms: _471  and  _472
REMARK  187  A    between atoms: _471  and  _474
REMARK  188  A    between atoms: _474  and  _475
REMARK  189  A    between atoms: _475  and  _476
REMARK  190  A    between atoms: _476  and  _477
REMARK  191  A    between atoms: _477  and  _478
REMARK  192  A    between atoms: _482  and  _484
REMARK  193  A    between atoms: _484  and  _485
REMARK  194  A    between atoms: _484  and  _487
REMARK  195  A    between atoms: _487  and  _488
REMARK  196  A    between atoms: _490  and  _492
REMARK  197  A    between atoms: _492  and  _493
REMARK  198  A    between atoms: _492  and  _495
REMARK  199  A    between atoms: _495  and  _496
REMARK  200  A    between atoms: _499  and  _501
REMARK  201  A    between atoms: _501  and  _502
REMARK  202  A    between atoms: _501  and  _504
REMARK  203  A    between atoms: _504  and  _505
REMARK  204  A    between atoms: _505  and  _506
REMARK  205  A    between atoms: _509  and  _511
REMARK  206  A    between atoms: _511  and  _512
REMARK  207  A    between atoms: _515  and  _517
REMARK  208  A    between atoms: _517  and  _518
REMARK  209  A    between atoms: _517  and  _520
REMARK  210  A    between atoms: _520  and  _521
REMARK  211  A    between atoms: _523  and  _525
REMARK  212  A    between atoms: _525  and  _526
REMARK  213  A    between atoms: _528  and  _530
REMARK  214  A    between atoms: _530  and  _531
REMARK  215  A    between atoms: _530  and  _533
REMARK  216  A    between atoms: _533  and  _534
REMARK  217  A    between atoms: _537  and  _539
REMARK  218  A    between atoms: _539  and  _540
REMARK  219  A    between atoms: _542  and  _544
REMARK  220  A    between atoms: _544  and  _545
REMARK  221  A    between atoms: _544  and  _547
REMARK  222  A    between atoms: _547  and  _548
REMARK  223  A    between atoms: _553  and  _555
REMARK  224  A    between atoms: _555  and  _556
REMARK  225  A    between atoms: _555  and  _558
REMARK  226  A    between atoms: _558  and  _559
REMARK  227  A    between atoms: _559  and  _560
REMARK  228  A    between atoms: _567  and  _568
REMARK  229  A    between atoms: _568  and  _584
REMARK  230  A    between atoms: _569  and  _571
REMARK  231  A    between atoms: _571  and  _572
REMARK  232  A    between atoms: _572  and  _573
REMARK  233  A    between atoms: _577  and  _579
REMARK  234  A    between atoms: _579  and  _580
REMARK  235  A    between atoms: _579  and  _587
REMARK  236  A    between atoms: _580  and  _581
REMARK  237  A    between atoms: _581  and  _582
REMARK  238  A    between atoms: _582  and  _583
REMARK  239  A    between atoms: _583  and  _584
REMARK  240  A    between atoms: _589  and  _591
REMARK  241  A    between atoms: _591  and  _592
REMARK  242  A    between atoms: _591  and  _594
REMARK  243  A    between atoms: _594  and  _595
REMARK  244  A    between atoms: _598  and  _600
REMARK  245  A    between atoms: _600  and  _601
REMARK  246  A    between atoms: _603  and  _605
REMARK  247  A    between atoms: _605  and  _606
REMARK  248  A    between atoms: _609  and  _611
REMARK  249  A    between atoms: _611  and  _612
REMARK  250  A    between atoms: _611  and  _614
REMARK  251  A    between atoms: _614  and  _615
REMARK  252  A    between atoms: _618  and  _620
REMARK  253  A    between atoms: _620  and  _621
REMARK  254  A    between atoms: _620  and  _623
REMARK  255  A    between atoms: _623  and  _624
REMARK  256  A    between atoms: _629  and  _630
REMARK                            x       y       z     vdW  Elec       q    Type
REMARK                         _______ _______ _______ _____ _____    ______ ____
ROOT
ATOM      1  O   HOH     1      32.389  29.231  28.584  0.00  0.00    +0.000 OA
ENDROOT
TORSDOF 0
