REMARK  Name = ../refined-set-2016/2rke/2rke_pocket.pdb
REMARK  138 active torsions:
REMARK  status: ('A' for Active; 'I' for Inactive)
REMARK    1  A    between atoms: _1  and  _3
REMARK    2  A    between atoms: _3  and  _4
REMARK    3  A    between atoms: _3  and  _6
REMARK    4  A    between atoms: _6  and  _7
REMARK    5  A    between atoms: _10  and  _12
REMARK    6  A    between atoms: _12  and  _13
REMARK    7  A    between atoms: _12  and  _15
REMARK    8  A    between atoms: _18  and  _20
REMARK    9  A    between atoms: _20  and  _21
REMARK   10  A    between atoms: _24  and  _26
REMARK   11  A    between atoms: _26  and  _27
REMARK   12  A    between atoms: _26  and  _29
REMARK   13  A    between atoms: _29  and  _30
REMARK   14  A    between atoms: _30  and  _31
REMARK   15  A    between atoms: _31  and  _32
REMARK   16  A    between atoms: _41  and  _43
REMARK   17  A    between atoms: _43  and  _44
REMARK   18  A    between atoms: _43  and  _46
REMARK   19  A    between atoms: _46  and  _47
REMARK   20  A    between atoms: _50  and  _52
REMARK   21  A    between atoms: _52  and  _53
REMARK   22  A    between atoms: _52  and  _55
REMARK   23  A    between atoms: _55  and  _56
REMARK   24  A    between atoms: _61  and  _62
REMARK   25  A    between atoms: _64  and  _66
REMARK   26  A    between atoms: _66  and  _67
REMARK   27  A    between atoms: _66  and  _69
REMARK   28  A    between atoms: _69  and  _70
REMARK   29  A    between atoms: _70  and  _71
REMARK   30  A    between atoms: _73  and  _75
REMARK   31  A    between atoms: _75  and  _76
REMARK   32  A    between atoms: _75  and  _78
REMARK   33  A    between atoms: _78  and  _79
REMARK   34  A    between atoms: _81  and  _83
REMARK   35  A    between atoms: _83  and  _84
REMARK   36  A    between atoms: _86  and  _88
REMARK   37  A    between atoms: _88  and  _89
REMARK   38  A    between atoms: _88  and  _91
REMARK   39  A    between atoms: _91  and  _92
REMARK   40  A    between atoms: _97  and  _98
REMARK   41  A    between atoms: _100  and  _102
REMARK   42  A    between atoms: _102  and  _103
REMARK   43  A    between atoms: _105  and  _107
REMARK   44  A    between atoms: _107  and  _108
REMARK   45  A    between atoms: _110  and  _112
REMARK   46  A    between atoms: _112  and  _113
REMARK   47  A    between atoms: _112  and  _115
REMARK   48  A    between atoms: _115  and  _116
REMARK   49  A    between atoms: _121  and  _123
REMARK   50  A    between atoms: _123  and  _124
REMARK   51  A    between atoms: _123  and  _126
REMARK   52  A    between atoms: _126  and  _127
REMARK   53  A    between atoms: _129  and  _131
REMARK   54  A    between atoms: _131  and  _132
REMARK   55  A    between atoms: _131  and  _134
REMARK   56  A    between atoms: _134  and  _135
REMARK   57  A    between atoms: _138  and  _140
REMARK   58  A    between atoms: _140  and  _141
REMARK   59  A    between atoms: _140  and  _143
REMARK   60  A    between atoms: _143  and  _144
REMARK   61  A    between atoms: _144  and  _145
REMARK   62  A    between atoms: _145  and  _146
REMARK   63  A    between atoms: _146  and  _147
REMARK   64  A    between atoms: _151  and  _153
REMARK   65  A    between atoms: _153  and  _154
REMARK   66  A    between atoms: _153  and  _156
REMARK   67  A    between atoms: _156  and  _157
REMARK   68  A    between atoms: _157  and  _158
REMARK   69  A    between atoms: _158  and  _159
REMARK   70  A    between atoms: _159  and  _160
REMARK   71  A    between atoms: _164  and  _166
REMARK   72  A    between atoms: _166  and  _167
REMARK   73  A    between atoms: _166  and  _169
REMARK   74  A    between atoms: _171  and  _173
REMARK   75  A    between atoms: _173  and  _174
REMARK   76  A    between atoms: _173  and  _176
REMARK   77  A    between atoms: _176  and  _177
REMARK   78  A    between atoms: _177  and  _178
REMARK   79  A    between atoms: _178  and  _179
REMARK   80  A    between atoms: _188  and  _190
REMARK   81  A    between atoms: _190  and  _191
REMARK   82  A    between atoms: _190  and  _193
REMARK   83  A    between atoms: _193  and  _194
REMARK   84  A    between atoms: _198  and  MN_331
REMARK   85  A    between atoms: _199  and  _201
REMARK   86  A    between atoms: _201  and  _202
REMARK   87  A    between atoms: _201  and  _204
REMARK   88  A    between atoms: _204  and  _205
REMARK   89  A    between atoms: _205  and  _206
REMARK   90  A    between atoms: _206  and  _207
REMARK   91  A    between atoms: _207  and  _208
REMARK   92  A    between atoms: _212  and  _214
REMARK   93  A    between atoms: _214  and  _215
REMARK   94  A    between atoms: _214  and  _217
REMARK   95  A    between atoms: _217  and  _218
REMARK   96  A    between atoms: _218  and  _219
REMARK   97  A    between atoms: _219  and  MN_331
REMARK   98  A    between atoms: _221  and  _223
REMARK   99  A    between atoms: _223  and  _224
REMARK  100  A    between atoms: _223  and  _226
REMARK  101  A    between atoms: _226  and  _227
REMARK  102  A    between atoms: _230  and  _232
REMARK  103  A    between atoms: _232  and  _233
REMARK  104  A    between atoms: _232  and  _235
REMARK  105  A    between atoms: _235  and  _236
REMARK  106  A    between atoms: _236  and  _237
REMARK  107  A    between atoms: _240  and  _242
REMARK  108  A    between atoms: _242  and  _243
REMARK  109  A    between atoms: _242  and  _245
REMARK  110  A    between atoms: _245  and  _246
REMARK  111  A    between atoms: _252  and  _254
REMARK  112  A    between atoms: _254  and  _255
REMARK  113  A    between atoms: _257  and  _259
REMARK  114  A    between atoms: _259  and  _260
REMARK  115  A    between atoms: _259  and  _262
REMARK  116  A    between atoms: _265  and  _267
REMARK  117  A    between atoms: _267  and  _268
REMARK  118  A    between atoms: _267  and  _270
REMARK  119  A    between atoms: _270  and  _271
REMARK  120  A    between atoms: _276  and  _278
REMARK  121  A    between atoms: _278  and  _279
REMARK  122  A    between atoms: _278  and  _281
REMARK  123  A    between atoms: _281  and  _282
REMARK  124  A    between atoms: _287  and  _289
REMARK  125  A    between atoms: _289  and  _290
REMARK  126  A    between atoms: _289  and  _292
REMARK  127  A    between atoms: _292  and  _293
REMARK  128  A    between atoms: _295  and  _297
REMARK  129  A    between atoms: _297  and  _298
REMARK  130  A    between atoms: _297  and  _300
REMARK  131  A    between atoms: _300  and  _301
REMARK  132  A    between atoms: _301  and  _302
REMARK  133  A    between atoms: _302  and  _303
REMARK  134  A    between atoms: _313  and  _314
REMARK  135  A    between atoms: _319  and  _321
REMARK  136  A    between atoms: _321  and  _322
REMARK  137  A    between atoms: _321  and  _324
REMARK  138  A    between atoms: _324  and  _325
REMARK                            x       y       z     vdW  Elec       q    Type
REMARK                         _______ _______ _______ _____ _____    ______ ____
ROOT
ATOM      1  C   ALA A   3       7.676  -7.966   8.247  0.00  0.00    +0.241 C 
ATOM      2  N   ARG A   4       6.950  -6.883   7.940  0.00  0.00    -0.297 N 
ATOM      3  H   ARG A   4       6.021  -6.756   8.391  0.00  0.00    +0.150 HD
ATOM      4  O   ALA A   3       8.595  -8.380   7.543  0.00  0.00    -0.273 OA
ENDROOT
BRANCH   1   5
ATOM      5  CA  ALA A   3       7.326  -8.681   9.551  0.00  0.00    +0.149 C 
ATOM      6  CB  ALA A   3       7.938  -7.901  10.721  0.00  0.00    +0.031 C 
BRANCH   5   9
ATOM      7  C   VAL A   2       7.445 -10.960  10.514  0.00  0.00    +0.241 C 
ATOM      8  O   VAL A   2       6.619 -10.708  11.399  0.00  0.00    -0.273 OA
ATOM      9  N   ALA A   3       7.796 -10.077   9.568  0.00  0.00    -0.297 N 
ATOM     10  H   ALA A   3       8.432 -10.393   8.808  0.00  0.00    +0.150 HD
BRANCH   7  11
ATOM     11  CA  VAL A   2       8.106 -12.347  10.474  0.00  0.00    +0.148 C 
BRANCH  11  13
ATOM     12  C   ASP A   1       9.150 -13.602   8.625  0.00  0.00    +0.239 C 
ATOM     13  N   VAL A   2       9.125 -12.538   9.428  0.00  0.00    -0.297 N 
ATOM     14  H   VAL A   2       9.858 -11.810   9.310  0.00  0.00    +0.150 HD
ATOM     15  O   ASP A   1       8.210 -14.398   8.529  0.00  0.00    -0.274 OA
BRANCH  12  16
ATOM     16  CA  ASP A   1      10.416 -13.776   7.777  0.00  0.00    +0.156 C 
BRANCH  16  17
ATOM     17  N   ASP A   1      11.474 -14.417   8.539  0.00  0.00    -0.238 NA
ATOM     18  H   ASP A   1      11.284 -15.331   8.998  0.00  0.00    +0.142 HD
ENDBRANCH  16  17
BRANCH  16  19
ATOM     19  CB  ASP A   1      10.134 -14.592   6.505  0.00  0.00    +0.140 C 
BRANCH  19  20
ATOM     20  CG  ASP A   1       9.298 -13.832   5.496  0.00  0.00    +0.367 C 
ATOM     21  OD2 ASP A   1       9.300 -12.583   5.536  0.00  0.00    -0.246 OA
ATOM     22  OD1 ASP A   1       8.640 -14.485   4.649  0.00  0.00    -0.246 OA
ENDBRANCH  19  20
ENDBRANCH  16  19
ENDBRANCH  12  16
ENDBRANCH  11  13
BRANCH  11  23
ATOM     23  CB  VAL A   2       8.672 -12.650  11.909  0.00  0.00    +0.027 C 
ATOM     24  CG2 VAL A   2       9.791 -11.679  12.270  0.00  0.00    +0.002 C 
ATOM     25  CG1 VAL A   2       9.137 -14.091  12.031  0.00  0.00    +0.002 C 
ENDBRANCH  11  23
ENDBRANCH   7  11
ENDBRANCH   5   9
ENDBRANCH   1   5
BRANCH   2  26
ATOM     26  CA  ARG A   4       7.422  -5.870   6.988  0.00  0.00    +0.149 C 
BRANCH  26  27
ATOM     27  C   ARG A   4       8.858  -5.460   7.327  0.00  0.00    +0.241 C 
ATOM     28  O   ARG A   4       9.141  -5.149   8.484  0.00  0.00    -0.273 OA
ATOM     29  N   ILE A   5       9.759  -5.463   6.342  0.00  0.00    -0.298 N 
ATOM     30  H   ILE A   5       9.495  -5.826   5.404  0.00  0.00    +0.150 HD
BRANCH  29  31
ATOM     31  CA  ILE A   5      11.124  -4.957   6.569  0.00  0.00    +0.137 C 
BRANCH  31  32
ATOM     32  CB  ILE A   5      12.252  -5.911   6.079  0.00  0.00    +0.026 C 
ATOM     33  CG2 ILE A   5      13.581  -5.577   6.753  0.00  0.00    +0.002 C 
BRANCH  32  34
ATOM     34  CG1 ILE A   5      11.879  -7.375   6.277  0.00  0.00    +0.002 C 
ATOM     35  CD1 ILE A   5      11.402  -8.011   5.003  0.00  0.00    +0.000 C 
ENDBRANCH  32  34
ENDBRANCH  31  32
BRANCH  31  36
ATOM     36  C   ILE A   5      11.290  -3.617   5.875  0.00  0.00    +0.227 C 
ATOM     37  O   ILE A   5      11.410  -3.545   4.648  0.00  0.00    -0.286 OA
ENDBRANCH  31  36
ENDBRANCH  29  31
ENDBRANCH  26  27
BRANCH  26  38
ATOM     38  CB  ARG A   4       6.584  -4.601   7.102  0.00  0.00    +0.033 C 
BRANCH  38  39
ATOM     39  CG  ARG A   4       5.517  -4.402   6.054  0.00  0.00    +0.045 C 
BRANCH  39  40
ATOM     40  CD  ARG A   4       4.883  -3.012   6.165  0.00  0.00    +0.174 C 
BRANCH  40  41
ATOM     41  NE  ARG A   4       4.544  -2.659   7.547  0.00  0.00    -0.265 N 
ATOM     42  CZ  ARG A   4       5.196  -1.768   8.293  0.00  0.00    +0.342 C 
ATOM     43  NH2 ARG A   4       4.799  -1.542   9.543  0.00  0.00    -0.292 N 
ATOM     44 HH21 ARG A   4       5.303  -0.848  10.131  0.00  0.00    +0.255 HD
ATOM     45 HH22 ARG A   4       3.985  -2.059   9.932  0.00  0.00    +0.255 HD
ATOM     46  NH1 ARG A   4       6.230  -1.092   7.802  0.00  0.00    -0.292 N 
ATOM     47 HH11 ARG A   4       6.729  -0.400   8.397  0.00  0.00    +0.255 HD
ATOM     48 HH12 ARG A   4       6.540  -1.255   6.823  0.00  0.00    +0.255 HD
ATOM     49  HE  ARG A   4       3.731  -3.142   7.979  0.00  0.00    +0.259 HD
ENDBRANCH  40  41
ENDBRANCH  39  40
ENDBRANCH  38  39
ENDBRANCH  26  38
ENDBRANCH   2  26
TORSDOF 19
REMARK  Name = ../refined-set-2016/2rke/2rke_pocket.pdb
REMARK  138 active torsions:
REMARK  status: ('A' for Active; 'I' for Inactive)
REMARK    1  A    between atoms: _1  and  _3
REMARK    2  A    between atoms: _3  and  _4
REMARK    3  A    between atoms: _3  and  _6
REMARK    4  A    between atoms: _6  and  _7
REMARK    5  A    between atoms: _10  and  _12
REMARK    6  A    between atoms: _12  and  _13
REMARK    7  A    between atoms: _12  and  _15
REMARK    8  A    between atoms: _18  and  _20
REMARK    9  A    between atoms: _20  and  _21
REMARK   10  A    between atoms: _24  and  _26
REMARK   11  A    between atoms: _26  and  _27
REMARK   12  A    between atoms: _26  and  _29
REMARK   13  A    between atoms: _29  and  _30
REMARK   14  A    between atoms: _30  and  _31
REMARK   15  A    between atoms: _31  and  _32
REMARK   16  A    between atoms: _41  and  _43
REMARK   17  A    between atoms: _43  and  _44
REMARK   18  A    between atoms: _43  and  _46
REMARK   19  A    between atoms: _46  and  _47
REMARK   20  A    between atoms: _50  and  _52
REMARK   21  A    between atoms: _52  and  _53
REMARK   22  A    between atoms: _52  and  _55
REMARK   23  A    between atoms: _55  and  _56
REMARK   24  A    between atoms: _61  and  _62
REMARK   25  A    between atoms: _64  and  _66
REMARK   26  A    between atoms: _66  and  _67
REMARK   27  A    between atoms: _66  and  _69
REMARK   28  A    between atoms: _69  and  _70
REMARK   29  A    between atoms: _70  and  _71
REMARK   30  A    between atoms: _73  and  _75
REMARK   31  A    between atoms: _75  and  _76
REMARK   32  A    between atoms: _75  and  _78
REMARK   33  A    between atoms: _78  and  _79
REMARK   34  A    between atoms: _81  and  _83
REMARK   35  A    between atoms: _83  and  _84
REMARK   36  A    between atoms: _86  and  _88
REMARK   37  A    between atoms: _88  and  _89
REMARK   38  A    between atoms: _88  and  _91
REMARK   39  A    between atoms: _91  and  _92
REMARK   40  A    between atoms: _97  and  _98
REMARK   41  A    between atoms: _100  and  _102
REMARK   42  A    between atoms: _102  and  _103
REMARK   43  A    between atoms: _105  and  _107
REMARK   44  A    between atoms: _107  and  _108
REMARK   45  A    between atoms: _110  and  _112
REMARK   46  A    between atoms: _112  and  _113
REMARK   47  A    between atoms: _112  and  _115
REMARK   48  A    between atoms: _115  and  _116
REMARK   49  A    between atoms: _121  and  _123
REMARK   50  A    between atoms: _123  and  _124
REMARK   51  A    between atoms: _123  and  _126
REMARK   52  A    between atoms: _126  and  _127
REMARK   53  A    between atoms: _129  and  _131
REMARK   54  A    between atoms: _131  and  _132
REMARK   55  A    between atoms: _131  and  _134
REMARK   56  A    between atoms: _134  and  _135
REMARK   57  A    between atoms: _138  and  _140
REMARK   58  A    between atoms: _140  and  _141
REMARK   59  A    between atoms: _140  and  _143
REMARK   60  A    between atoms: _143  and  _144
REMARK   61  A    between atoms: _144  and  _145
REMARK   62  A    between atoms: _145  and  _146
REMARK   63  A    between atoms: _146  and  _147
REMARK   64  A    between atoms: _151  and  _153
REMARK   65  A    between atoms: _153  and  _154
REMARK   66  A    between atoms: _153  and  _156
REMARK   67  A    between atoms: _156  and  _157
REMARK   68  A    between atoms: _157  and  _158
REMARK   69  A    between atoms: _158  and  _159
REMARK   70  A    between atoms: _159  and  _160
REMARK   71  A    between atoms: _164  and  _166
REMARK   72  A    between atoms: _166  and  _167
REMARK   73  A    between atoms: _166  and  _169
REMARK   74  A    between atoms: _171  and  _173
REMARK   75  A    between atoms: _173  and  _174
REMARK   76  A    between atoms: _173  and  _176
REMARK   77  A    between atoms: _176  and  _177
REMARK   78  A    between atoms: _177  and  _178
REMARK   79  A    between atoms: _178  and  _179
REMARK   80  A    between atoms: _188  and  _190
REMARK   81  A    between atoms: _190  and  _191
REMARK   82  A    between atoms: _190  and  _193
REMARK   83  A    between atoms: _193  and  _194
REMARK   84  A    between atoms: _198  and  MN_331
REMARK   85  A    between atoms: _199  and  _201
REMARK   86  A    between atoms: _201  and  _202
REMARK   87  A    between atoms: _201  and  _204
REMARK   88  A    between atoms: _204  and  _205
REMARK   89  A    between atoms: _205  and  _206
REMARK   90  A    between atoms: _206  and  _207
REMARK   91  A    between atoms: _207  and  _208
REMARK   92  A    between atoms: _212  and  _214
REMARK   93  A    between atoms: _214  and  _215
REMARK   94  A    between atoms: _214  and  _217
REMARK   95  A    between atoms: _217  and  _218
REMARK   96  A    between atoms: _218  and  _219
REMARK   97  A    between atoms: _219  and  MN_331
REMARK   98  A    between atoms: _221  and  _223
REMARK   99  A    between atoms: _223  and  _224
REMARK  100  A    between atoms: _223  and  _226
REMARK  101  A    between atoms: _226  and  _227
REMARK  102  A    between atoms: _230  and  _232
REMARK  103  A    between atoms: _232  and  _233
REMARK  104  A    between atoms: _232  and  _235
REMARK  105  A    between atoms: _235  and  _236
REMARK  106  A    between atoms: _236  and  _237
REMARK  107  A    between atoms: _240  and  _242
REMARK  108  A    between atoms: _242  and  _243
REMARK  109  A    between atoms: _242  and  _245
REMARK  110  A    between atoms: _245  and  _246
REMARK  111  A    between atoms: _252  and  _254
REMARK  112  A    between atoms: _254  and  _255
REMARK  113  A    between atoms: _257  and  _259
REMARK  114  A    between atoms: _259  and  _260
REMARK  115  A    between atoms: _259  and  _262
REMARK  116  A    between atoms: _265  and  _267
REMARK  117  A    between atoms: _267  and  _268
REMARK  118  A    between atoms: _267  and  _270
REMARK  119  A    between atoms: _270  and  _271
REMARK  120  A    between atoms: _276  and  _278
REMARK  121  A    between atoms: _278  and  _279
REMARK  122  A    between atoms: _278  and  _281
REMARK  123  A    between atoms: _281  and  _282
REMARK  124  A    between atoms: _287  and  _289
REMARK  125  A    between atoms: _289  and  _290
REMARK  126  A    between atoms: _289  and  _292
REMARK  127  A    between atoms: _292  and  _293
REMARK  128  A    between atoms: _295  and  _297
REMARK  129  A    between atoms: _297  and  _298
REMARK  130  A    between atoms: _297  and  _300
REMARK  131  A    between atoms: _300  and  _301
REMARK  132  A    between atoms: _301  and  _302
REMARK  133  A    between atoms: _302  and  _303
REMARK  134  A    between atoms: _313  and  _314
REMARK  135  A    between atoms: _319  and  _321
REMARK  136  A    between atoms: _321  and  _322
REMARK  137  A    between atoms: _321  and  _324
REMARK  138  A    between atoms: _324  and  _325
REMARK                            x       y       z     vdW  Elec       q    Type
REMARK                         _______ _______ _______ _____ _____    ______ ____
ROOT
ATOM      1  CG  TYR A   1       0.433 -17.441   3.698  0.00  0.00    -0.020 A 
ATOM      2  CD2 TYR A   1      -0.050 -17.910   4.929  0.00  0.00    -0.001 A 
ATOM      3  CE2 TYR A   1      -0.162 -17.058   6.033  0.00  0.00    +0.036 A 
ATOM      4  CZ  TYR A   1       0.224 -15.727   5.914  0.00  0.00    +0.134 A 
ATOM      5  CE1 TYR A   1       0.707 -15.236   4.702  0.00  0.00    +0.036 A 
ATOM      6  CD1 TYR A   1       0.826 -16.096   3.610  0.00  0.00    -0.001 A 
ENDROOT
BRANCH   4   7
ATOM      7  OH  TYR A   1       0.117 -14.884   6.997  0.00  0.00    -0.506 OA
ATOM      8  HH  TYR A   1       0.432 -13.980   6.743  0.00  0.00    +0.292 HD
ENDBRANCH   4   7
BRANCH   1   9
ATOM      9  CB  TYR A   1       0.553 -18.370   2.499  0.00  0.00    +0.051 C 
BRANCH   9  10
ATOM     10  CA  TYR A   1      -0.703 -18.401   1.603  0.00  0.00    +0.137 C 
BRANCH  10  11
ATOM     11  N   TYR A   1      -0.452 -19.191   0.377  0.00  0.00    -0.239 NA
ATOM     12  H   TYR A   1       0.479 -19.637   0.249  0.00  0.00    +0.142 HD
ENDBRANCH  10  11
BRANCH  10  13
ATOM     13  C   TYR A   1      -1.172 -16.961   1.276  0.00  0.00    +0.224 C 
ATOM     14  O   TYR A   1      -2.106 -16.440   1.905  0.00  0.00    -0.287 OA
ENDBRANCH  10  13
ENDBRANCH   9  10
ENDBRANCH   1   9
TORSDOF 5
REMARK  Name = ../refined-set-2016/2rke/2rke_pocket.pdb
REMARK  138 active torsions:
REMARK  status: ('A' for Active; 'I' for Inactive)
REMARK    1  A    between atoms: _1  and  _3
REMARK    2  A    between atoms: _3  and  _4
REMARK    3  A    between atoms: _3  and  _6
REMARK    4  A    between atoms: _6  and  _7
REMARK    5  A    between atoms: _10  and  _12
REMARK    6  A    between atoms: _12  and  _13
REMARK    7  A    between atoms: _12  and  _15
REMARK    8  A    between atoms: _18  and  _20
REMARK    9  A    between atoms: _20  and  _21
REMARK   10  A    between atoms: _24  and  _26
REMARK   11  A    between atoms: _26  and  _27
REMARK   12  A    between atoms: _26  and  _29
REMARK   13  A    between atoms: _29  and  _30
REMARK   14  A    between atoms: _30  and  _31
REMARK   15  A    between atoms: _31  and  _32
REMARK   16  A    between atoms: _41  and  _43
REMARK   17  A    between atoms: _43  and  _44
REMARK   18  A    between atoms: _43  and  _46
REMARK   19  A    between atoms: _46  and  _47
REMARK   20  A    between atoms: _50  and  _52
REMARK   21  A    between atoms: _52  and  _53
REMARK   22  A    between atoms: _52  and  _55
REMARK   23  A    between atoms: _55  and  _56
REMARK   24  A    between atoms: _61  and  _62
REMARK   25  A    between atoms: _64  and  _66
REMARK   26  A    between atoms: _66  and  _67
REMARK   27  A    between atoms: _66  and  _69
REMARK   28  A    between atoms: _69  and  _70
REMARK   29  A    between atoms: _70  and  _71
REMARK   30  A    between atoms: _73  and  _75
REMARK   31  A    between atoms: _75  and  _76
REMARK   32  A    between atoms: _75  and  _78
REMARK   33  A    between atoms: _78  and  _79
REMARK   34  A    between atoms: _81  and  _83
REMARK   35  A    between atoms: _83  and  _84
REMARK   36  A    between atoms: _86  and  _88
REMARK   37  A    between atoms: _88  and  _89
REMARK   38  A    between atoms: _88  and  _91
REMARK   39  A    between atoms: _91  and  _92
REMARK   40  A    between atoms: _97  and  _98
REMARK   41  A    between atoms: _100  and  _102
REMARK   42  A    between atoms: _102  and  _103
REMARK   43  A    between atoms: _105  and  _107
REMARK   44  A    between atoms: _107  and  _108
REMARK   45  A    between atoms: _110  and  _112
REMARK   46  A    between atoms: _112  and  _113
REMARK   47  A    between atoms: _112  and  _115
REMARK   48  A    between atoms: _115  and  _116
REMARK   49  A    between atoms: _121  and  _123
REMARK   50  A    between atoms: _123  and  _124
REMARK   51  A    between atoms: _123  and  _126
REMARK   52  A    between atoms: _126  and  _127
REMARK   53  A    between atoms: _129  and  _131
REMARK   54  A    between atoms: _131  and  _132
REMARK   55  A    between atoms: _131  and  _134
REMARK   56  A    between atoms: _134  and  _135
REMARK   57  A    between atoms: _138  and  _140
REMARK   58  A    between atoms: _140  and  _141
REMARK   59  A    between atoms: _140  and  _143
REMARK   60  A    between atoms: _143  and  _144
REMARK   61  A    between atoms: _144  and  _145
REMARK   62  A    between atoms: _145  and  _146
REMARK   63  A    between atoms: _146  and  _147
REMARK   64  A    between atoms: _151  and  _153
REMARK   65  A    between atoms: _153  and  _154
REMARK   66  A    between atoms: _153  and  _156
REMARK   67  A    between atoms: _156  and  _157
REMARK   68  A    between atoms: _157  and  _158
REMARK   69  A    between atoms: _158  and  _159
REMARK   70  A    between atoms: _159  and  _160
REMARK   71  A    between atoms: _164  and  _166
REMARK   72  A    between atoms: _166  and  _167
REMARK   73  A    between atoms: _166  and  _169
REMARK   74  A    between atoms: _171  and  _173
REMARK   75  A    between atoms: _173  and  _174
REMARK   76  A    between atoms: _173  and  _176
REMARK   77  A    between atoms: _176  and  _177
REMARK   78  A    between atoms: _177  and  _178
REMARK   79  A    between atoms: _178  and  _179
REMARK   80  A    between atoms: _188  and  _190
REMARK   81  A    between atoms: _190  and  _191
REMARK   82  A    between atoms: _190  and  _193
REMARK   83  A    between atoms: _193  and  _194
REMARK   84  A    between atoms: _198  and  MN_331
REMARK   85  A    between atoms: _199  and  _201
REMARK   86  A    between atoms: _201  and  _202
REMARK   87  A    between atoms: _201  and  _204
REMARK   88  A    between atoms: _204  and  _205
REMARK   89  A    between atoms: _205  and  _206
REMARK   90  A    between atoms: _206  and  _207
REMARK   91  A    between atoms: _207  and  _208
REMARK   92  A    between atoms: _212  and  _214
REMARK   93  A    between atoms: _214  and  _215
REMARK   94  A    between atoms: _214  and  _217
REMARK   95  A    between atoms: _217  and  _218
REMARK   96  A    between atoms: _218  and  _219
REMARK   97  A    between atoms: _219  and  MN_331
REMARK   98  A    between atoms: _221  and  _223
REMARK   99  A    between atoms: _223  and  _224
REMARK  100  A    between atoms: _223  and  _226
REMARK  101  A    between atoms: _226  and  _227
REMARK  102  A    between atoms: _230  and  _232
REMARK  103  A    between atoms: _232  and  _233
REMARK  104  A    between atoms: _232  and  _235
REMARK  105  A    between atoms: _235  and  _236
REMARK  106  A    between atoms: _236  and  _237
REMARK  107  A    between atoms: _240  and  _242
REMARK  108  A    between atoms: _242  and  _243
REMARK  109  A    between atoms: _242  and  _245
REMARK  110  A    between atoms: _245  and  _246
REMARK  111  A    between atoms: _252  and  _254
REMARK  112  A    between atoms: _254  and  _255
REMARK  113  A    between atoms: _257  and  _259
REMARK  114  A    between atoms: _259  and  _260
REMARK  115  A    between atoms: _259  and  _262
REMARK  116  A    between atoms: _265  and  _267
REMARK  117  A    between atoms: _267  and  _268
REMARK  118  A    between atoms: _267  and  _270
REMARK  119  A    between atoms: _270  and  _271
REMARK  120  A    between atoms: _276  and  _278
REMARK  121  A    between atoms: _278  and  _279
REMARK  122  A    between atoms: _278  and  _281
REMARK  123  A    between atoms: _281  and  _282
REMARK  124  A    between atoms: _287  and  _289
REMARK  125  A    between atoms: _289  and  _290
REMARK  126  A    between atoms: _289  and  _292
REMARK  127  A    between atoms: _292  and  _293
REMARK  128  A    between atoms: _295  and  _297
REMARK  129  A    between atoms: _297  and  _298
REMARK  130  A    between atoms: _297  and  _300
REMARK  131  A    between atoms: _300  and  _301
REMARK  132  A    between atoms: _301  and  _302
REMARK  133  A    between atoms: _302  and  _303
REMARK  134  A    between atoms: _313  and  _314
REMARK  135  A    between atoms: _319  and  _321
REMARK  136  A    between atoms: _321  and  _322
REMARK  137  A    between atoms: _321  and  _324
REMARK  138  A    between atoms: _324  and  _325
REMARK                            x       y       z     vdW  Elec       q    Type
REMARK                         _______ _______ _______ _____ _____    ______ ____
ROOT
ATOM      1  CA  MET A   1      -8.109  -8.941   2.915  0.00  0.00    +0.134 C 
ENDROOT
BRANCH   1   2
ATOM      2  N   MET A   1      -8.501 -10.356   2.752  0.00  0.00    -0.239 NA
ATOM      3  H   MET A   1      -7.809 -11.038   2.381  0.00  0.00    +0.142 HD
ENDBRANCH   1   2
BRANCH   1   4
ATOM      4  C   MET A   1      -8.561  -8.013   1.784  0.00  0.00    +0.224 C 
ATOM      5  O   MET A   1      -8.544  -6.789   1.944  0.00  0.00    -0.287 OA
ENDBRANCH   1   4
BRANCH   1   6
ATOM      6  CB  MET A   1      -6.594  -8.803   3.174  0.00  0.00    +0.037 C 
BRANCH   6   7
ATOM      7  CG  MET A   1      -6.142  -9.346   4.525  0.00  0.00    +0.059 C 
BRANCH   7   8
ATOM      8  SD  MET A   1      -7.074  -8.720   5.938  0.00  0.00    -0.139 S 
ATOM      9  CE  MET A   1      -6.733  -6.962   5.814  0.00  0.00    +0.069 C 
ENDBRANCH   7   8
ENDBRANCH   6   7
ENDBRANCH   1   6
TORSDOF 5
REMARK  Name = ../refined-set-2016/2rke/2rke_pocket.pdb
REMARK  138 active torsions:
REMARK  status: ('A' for Active; 'I' for Inactive)
REMARK    1  A    between atoms: _1  and  _3
REMARK    2  A    between atoms: _3  and  _4
REMARK    3  A    between atoms: _3  and  _6
REMARK    4  A    between atoms: _6  and  _7
REMARK    5  A    between atoms: _10  and  _12
REMARK    6  A    between atoms: _12  and  _13
REMARK    7  A    between atoms: _12  and  _15
REMARK    8  A    between atoms: _18  and  _20
REMARK    9  A    between atoms: _20  and  _21
REMARK   10  A    between atoms: _24  and  _26
REMARK   11  A    between atoms: _26  and  _27
REMARK   12  A    between atoms: _26  and  _29
REMARK   13  A    between atoms: _29  and  _30
REMARK   14  A    between atoms: _30  and  _31
REMARK   15  A    between atoms: _31  and  _32
REMARK   16  A    between atoms: _41  and  _43
REMARK   17  A    between atoms: _43  and  _44
REMARK   18  A    between atoms: _43  and  _46
REMARK   19  A    between atoms: _46  and  _47
REMARK   20  A    between atoms: _50  and  _52
REMARK   21  A    between atoms: _52  and  _53
REMARK   22  A    between atoms: _52  and  _55
REMARK   23  A    between atoms: _55  and  _56
REMARK   24  A    between atoms: _61  and  _62
REMARK   25  A    between atoms: _64  and  _66
REMARK   26  A    between atoms: _66  and  _67
REMARK   27  A    between atoms: _66  and  _69
REMARK   28  A    between atoms: _69  and  _70
REMARK   29  A    between atoms: _70  and  _71
REMARK   30  A    between atoms: _73  and  _75
REMARK   31  A    between atoms: _75  and  _76
REMARK   32  A    between atoms: _75  and  _78
REMARK   33  A    between atoms: _78  and  _79
REMARK   34  A    between atoms: _81  and  _83
REMARK   35  A    between atoms: _83  and  _84
REMARK   36  A    between atoms: _86  and  _88
REMARK   37  A    between atoms: _88  and  _89
REMARK   38  A    between atoms: _88  and  _91
REMARK   39  A    between atoms: _91  and  _92
REMARK   40  A    between atoms: _97  and  _98
REMARK   41  A    between atoms: _100  and  _102
REMARK   42  A    between atoms: _102  and  _103
REMARK   43  A    between atoms: _105  and  _107
REMARK   44  A    between atoms: _107  and  _108
REMARK   45  A    between atoms: _110  and  _112
REMARK   46  A    between atoms: _112  and  _113
REMARK   47  A    between atoms: _112  and  _115
REMARK   48  A    between atoms: _115  and  _116
REMARK   49  A    between atoms: _121  and  _123
REMARK   50  A    between atoms: _123  and  _124
REMARK   51  A    between atoms: _123  and  _126
REMARK   52  A    between atoms: _126  and  _127
REMARK   53  A    between atoms: _129  and  _131
REMARK   54  A    between atoms: _131  and  _132
REMARK   55  A    between atoms: _131  and  _134
REMARK   56  A    between atoms: _134  and  _135
REMARK   57  A    between atoms: _138  and  _140
REMARK   58  A    between atoms: _140  and  _141
REMARK   59  A    between atoms: _140  and  _143
REMARK   60  A    between atoms: _143  and  _144
REMARK   61  A    between atoms: _144  and  _145
REMARK   62  A    between atoms: _145  and  _146
REMARK   63  A    between atoms: _146  and  _147
REMARK   64  A    between atoms: _151  and  _153
REMARK   65  A    between atoms: _153  and  _154
REMARK   66  A    between atoms: _153  and  _156
REMARK   67  A    between atoms: _156  and  _157
REMARK   68  A    between atoms: _157  and  _158
REMARK   69  A    between atoms: _158  and  _159
REMARK   70  A    between atoms: _159  and  _160
REMARK   71  A    between atoms: _164  and  _166
REMARK   72  A    between atoms: _166  and  _167
REMARK   73  A    between atoms: _166  and  _169
REMARK   74  A    between atoms: _171  and  _173
REMARK   75  A    between atoms: _173  and  _174
REMARK   76  A    between atoms: _173  and  _176
REMARK   77  A    between atoms: _176  and  _177
REMARK   78  A    between atoms: _177  and  _178
REMARK   79  A    between atoms: _178  and  _179
REMARK   80  A    between atoms: _188  and  _190
REMARK   81  A    between atoms: _190  and  _191
REMARK   82  A    between atoms: _190  and  _193
REMARK   83  A    between atoms: _193  and  _194
REMARK   84  A    between atoms: _198  and  MN_331
REMARK   85  A    between atoms: _199  and  _201
REMARK   86  A    between atoms: _201  and  _202
REMARK   87  A    between atoms: _201  and  _204
REMARK   88  A    between atoms: _204  and  _205
REMARK   89  A    between atoms: _205  and  _206
REMARK   90  A    between atoms: _206  and  _207
REMARK   91  A    between atoms: _207  and  _208
REMARK   92  A    between atoms: _212  and  _214
REMARK   93  A    between atoms: _214  and  _215
REMARK   94  A    between atoms: _214  and  _217
REMARK   95  A    between atoms: _217  and  _218
REMARK   96  A    between atoms: _218  and  _219
REMARK   97  A    between atoms: _219  and  MN_331
REMARK   98  A    between atoms: _221  and  _223
REMARK   99  A    between atoms: _223  and  _224
REMARK  100  A    between atoms: _223  and  _226
REMARK  101  A    between atoms: _226  and  _227
REMARK  102  A    between atoms: _230  and  _232
REMARK  103  A    between atoms: _232  and  _233
REMARK  104  A    between atoms: _232  and  _235
REMARK  105  A    between atoms: _235  and  _236
REMARK  106  A    between atoms: _236  and  _237
REMARK  107  A    between atoms: _240  and  _242
REMARK  108  A    between atoms: _242  and  _243
REMARK  109  A    between atoms: _242  and  _245
REMARK  110  A    between atoms: _245  and  _246
REMARK  111  A    between atoms: _252  and  _254
REMARK  112  A    between atoms: _254  and  _255
REMARK  113  A    between atoms: _257  and  _259
REMARK  114  A    between atoms: _259  and  _260
REMARK  115  A    between atoms: _259  and  _262
REMARK  116  A    between atoms: _265  and  _267
REMARK  117  A    between atoms: _267  and  _268
REMARK  118  A    between atoms: _267  and  _270
REMARK  119  A    between atoms: _270  and  _271
REMARK  120  A    between atoms: _276  and  _278
REMARK  121  A    between atoms: _278  and  _279
REMARK  122  A    between atoms: _278  and  _281
REMARK  123  A    between atoms: _281  and  _282
REMARK  124  A    between atoms: _287  and  _289
REMARK  125  A    between atoms: _289  and  _290
REMARK  126  A    between atoms: _289  and  _292
REMARK  127  A    between atoms: _292  and  _293
REMARK  128  A    between atoms: _295  and  _297
REMARK  129  A    between atoms: _297  and  _298
REMARK  130  A    between atoms: _297  and  _300
REMARK  131  A    between atoms: _300  and  _301
REMARK  132  A    between atoms: _301  and  _302
REMARK  133  A    between atoms: _302  and  _303
REMARK  134  A    between atoms: _313  and  _314
REMARK  135  A    between atoms: _319  and  _321
REMARK  136  A    between atoms: _321  and  _322
REMARK  137  A    between atoms: _321  and  _324
REMARK  138  A    between atoms: _324  and  _325
REMARK                            x       y       z     vdW  Elec       q    Type
REMARK                         _______ _______ _______ _____ _____    ______ ____
ROOT
ATOM      1  C   GLY A   4       2.140  -8.584   4.586  0.00  0.00    +0.243 C 
ATOM      2  N   GLY A   5       2.705  -7.494   5.122  0.00  0.00    -0.295 N 
ATOM      3  H   GLY A   5       3.046  -7.535   6.104  0.00  0.00    +0.150 HD
ATOM      4  O   GLY A   4       1.838  -8.672   3.396  0.00  0.00    -0.273 OA
ENDROOT
BRANCH   2   5
ATOM      5  CA  GLY A   5       2.858  -6.242   4.366  0.00  0.00    +0.176 C 
BRANCH   5   6
ATOM      6  C   GLY A   5       3.767  -6.311   3.150  0.00  0.00    +0.243 C 
ATOM      7  N   ASN A   6       4.643  -7.314   3.130  0.00  0.00    -0.297 N 
ATOM      8  H   ASN A   6       4.670  -7.964   3.942  0.00  0.00    +0.150 HD
ATOM      9  O   GLY A   5       3.668  -5.468   2.248  0.00  0.00    -0.273 OA
BRANCH   7  10
ATOM     10  CA  ASN A   6       5.572  -7.547   2.019  0.00  0.00    +0.158 C 
BRANCH  10  11
ATOM     11  C   ASN A   6       4.962  -8.360   0.879  0.00  0.00    +0.241 C 
ATOM     12  N   SER A   7       3.888  -9.103   1.158  0.00  0.00    -0.295 N 
ATOM     13  H   SER A   7       3.429  -8.992   2.084  0.00  0.00    +0.150 HD
ATOM     14  O   ASN A   6       5.480  -8.330  -0.238  0.00  0.00    -0.273 OA
BRANCH  12  15
ATOM     15  CA  SER A   7       3.333 -10.070   0.206  0.00  0.00    +0.178 C 
BRANCH  15  16
ATOM     16  C   SER A   7       1.869  -9.874  -0.163  0.00  0.00    +0.243 C 
ATOM     17  N   LEU A   8       1.048  -9.387   0.779  0.00  0.00    -0.298 N 
ATOM     18  H   LEU A   8       1.403  -9.279   1.751  0.00  0.00    +0.150 HD
ATOM     19  O   SER A   7       1.490 -10.233  -1.272  0.00  0.00    -0.273 OA
BRANCH  17  20
ATOM     20  CA  LEU A   8      -0.340  -9.001   0.478  0.00  0.00    +0.137 C 
BRANCH  20  21
ATOM     21  C   LEU A   8      -0.221  -7.575   0.014  0.00  0.00    +0.227 C 
ATOM     22  O   LEU A   8      -0.185  -6.631   0.827  0.00  0.00    -0.286 OA
ENDBRANCH  20  21
BRANCH  20  23
ATOM     23  CB  LEU A   8      -1.270  -9.119   1.698  0.00  0.00    +0.028 C 
BRANCH  23  24
ATOM     24  CG  LEU A   8      -1.092 -10.352   2.595  0.00  0.00    +0.002 C 
ATOM     25  CD2 LEU A   8      -2.086 -10.321   3.780  0.00  0.00    +0.000 C 
ATOM     26  CD1 LEU A   8      -1.181 -11.674   1.817  0.00  0.00    +0.000 C 
ENDBRANCH  23  24
ENDBRANCH  20  23
ENDBRANCH  17  20
ENDBRANCH  15  16
BRANCH  15  27
ATOM     27  CB  SER A   7       3.520 -11.500   0.726  0.00  0.00    +0.166 C 
BRANCH  27  28
ATOM     28  OG  SER A   7       2.763 -11.698   1.906  0.00  0.00    -0.380 OA
ATOM     29  H   SER A   7       2.894 -12.625   2.229  0.00  0.00    +0.211 HD
ENDBRANCH  27  28
ENDBRANCH  15  27
ENDBRANCH  12  15
ENDBRANCH  10  11
BRANCH  10  30
ATOM     30  CB  ASN A   6       6.814  -8.318   2.507  0.00  0.00    +0.114 C 
BRANCH  30  31
ATOM     31  CG  ASN A   6       7.549  -7.628   3.634  0.00  0.00    +0.222 C 
ATOM     32  ND2 ASN A   6       8.146  -8.425   4.509  0.00  0.00    -0.329 N 
ATOM     33 HD21 ASN A   6       8.678  -8.018   5.305  0.00  0.00    +0.145 HD
ATOM     34 HD22 ASN A   6       8.083  -9.457   4.400  0.00  0.00    +0.145 HD
ATOM     35  OD1 ASN A   6       7.594  -6.397   3.719  0.00  0.00    -0.275 OA
ENDBRANCH  30  31
ENDBRANCH  10  30
ENDBRANCH   7  10
ENDBRANCH   5   6
ENDBRANCH   2   5
BRANCH   1  36
ATOM     36  CA  GLY A   4       1.925  -9.760   5.516  0.00  0.00    +0.176 C 
BRANCH  36  38
ATOM     37  C   TYR A   3       4.044 -10.914   4.866  0.00  0.00    +0.241 C 
ATOM     38  N   GLY A   4       2.833 -10.921   5.413  0.00  0.00    -0.295 N 
ATOM     39  H   GLY A   4       2.494 -11.824   5.803  0.00  0.00    +0.150 HD
ATOM     40  O   TYR A   3       4.508  -9.965   4.224  0.00  0.00    -0.273 OA
BRANCH  37  41
ATOM     41  CA  TYR A   3       4.872 -12.179   5.115  0.00  0.00    +0.153 C 
BRANCH  41  43
ATOM     42  C   GLY A   2       4.999 -13.605   3.121  0.00  0.00    +0.243 C 
ATOM     43  N   TYR A   3       5.573 -12.721   3.943  0.00  0.00    -0.297 N 
ATOM     44  H   TYR A   3       6.545 -12.407   3.747  0.00  0.00    +0.150 HD
ATOM     45  O   GLY A   2       3.796 -13.895   3.158  0.00  0.00    -0.273 OA
BRANCH  42  46
ATOM     46  CA  GLY A   2       5.902 -14.260   2.097  0.00  0.00    +0.176 C 
BRANCH  46  48
ATOM     47  C   SER A   1       7.779 -12.879   1.444  0.00  0.00    +0.241 C 
ATOM     48  N   GLY A   2       7.282 -13.838   2.220  0.00  0.00    -0.295 N 
ATOM     49  H   GLY A   2       7.895 -14.292   2.927  0.00  0.00    +0.150 HD
ATOM     50  O   SER A   1       7.161 -12.378   0.519  0.00  0.00    -0.274 OA
BRANCH  47  51
ATOM     51  CA  SER A   1       9.183 -12.413   1.754  0.00  0.00    +0.174 C 
BRANCH  51  52
ATOM     52  N   SER A   1       9.961 -12.232   0.515  0.00  0.00    -0.236 NA
ATOM     53  H   SER A   1       9.627 -11.555  -0.200  0.00  0.00    +0.142 HD
ENDBRANCH  51  52
BRANCH  51  54
ATOM     54  CB  SER A   1       9.113 -11.113   2.567  0.00  0.00    +0.163 C 
BRANCH  54  55
ATOM     55  OG  SER A   1       8.297 -11.279   3.727  0.00  0.00    -0.380 OA
ATOM     56  H   SER A   1       8.679 -11.992   4.298  0.00  0.00    +0.211 HD
ENDBRANCH  54  55
ENDBRANCH  51  54
ENDBRANCH  47  51
ENDBRANCH  46  48
ENDBRANCH  42  46
ENDBRANCH  41  43
BRANCH  41  57
ATOM     57  CB  TYR A   3       5.841 -11.906   6.270  0.00  0.00    +0.055 C 
BRANCH  57  58
ATOM     58  CG  TYR A   3       5.140 -11.856   7.621  0.00  0.00    -0.020 A 
ATOM     59  CD2 TYR A   3       5.053 -12.999   8.420  0.00  0.00    -0.001 A 
ATOM     60  CE2 TYR A   3       4.397 -12.981   9.647  0.00  0.00    +0.036 A 
ATOM     61  CZ  TYR A   3       3.819 -11.804  10.090  0.00  0.00    +0.134 A 
ATOM     62  CE1 TYR A   3       3.882 -10.644   9.313  0.00  0.00    +0.036 A 
ATOM     63  CD1 TYR A   3       4.550 -10.678   8.084  0.00  0.00    -0.001 A 
BRANCH  61  64
ATOM     64  OH  TYR A   3       3.186 -11.798  11.310  0.00  0.00    -0.506 OA
ATOM     65  HH  TYR A   3       3.627 -11.141  11.906  0.00  0.00    +0.292 HD
ENDBRANCH  61  64
ENDBRANCH  57  58
ENDBRANCH  41  57
ENDBRANCH  37  41
ENDBRANCH  36  38
ENDBRANCH   1  36
TORSDOF 27
REMARK  Name = ../refined-set-2016/2rke/2rke_pocket.pdb
REMARK  138 active torsions:
REMARK  status: ('A' for Active; 'I' for Inactive)
REMARK    1  A    between atoms: _1  and  _3
REMARK    2  A    between atoms: _3  and  _4
REMARK    3  A    between atoms: _3  and  _6
REMARK    4  A    between atoms: _6  and  _7
REMARK    5  A    between atoms: _10  and  _12
REMARK    6  A    between atoms: _12  and  _13
REMARK    7  A    between atoms: _12  and  _15
REMARK    8  A    between atoms: _18  and  _20
REMARK    9  A    between atoms: _20  and  _21
REMARK   10  A    between atoms: _24  and  _26
REMARK   11  A    between atoms: _26  and  _27
REMARK   12  A    between atoms: _26  and  _29
REMARK   13  A    between atoms: _29  and  _30
REMARK   14  A    between atoms: _30  and  _31
REMARK   15  A    between atoms: _31  and  _32
REMARK   16  A    between atoms: _41  and  _43
REMARK   17  A    between atoms: _43  and  _44
REMARK   18  A    between atoms: _43  and  _46
REMARK   19  A    between atoms: _46  and  _47
REMARK   20  A    between atoms: _50  and  _52
REMARK   21  A    between atoms: _52  and  _53
REMARK   22  A    between atoms: _52  and  _55
REMARK   23  A    between atoms: _55  and  _56
REMARK   24  A    between atoms: _61  and  _62
REMARK   25  A    between atoms: _64  and  _66
REMARK   26  A    between atoms: _66  and  _67
REMARK   27  A    between atoms: _66  and  _69
REMARK   28  A    between atoms: _69  and  _70
REMARK   29  A    between atoms: _70  and  _71
REMARK   30  A    between atoms: _73  and  _75
REMARK   31  A    between atoms: _75  and  _76
REMARK   32  A    between atoms: _75  and  _78
REMARK   33  A    between atoms: _78  and  _79
REMARK   34  A    between atoms: _81  and  _83
REMARK   35  A    between atoms: _83  and  _84
REMARK   36  A    between atoms: _86  and  _88
REMARK   37  A    between atoms: _88  and  _89
REMARK   38  A    between atoms: _88  and  _91
REMARK   39  A    between atoms: _91  and  _92
REMARK   40  A    between atoms: _97  and  _98
REMARK   41  A    between atoms: _100  and  _102
REMARK   42  A    between atoms: _102  and  _103
REMARK   43  A    between atoms: _105  and  _107
REMARK   44  A    between atoms: _107  and  _108
REMARK   45  A    between atoms: _110  and  _112
REMARK   46  A    between atoms: _112  and  _113
REMARK   47  A    between atoms: _112  and  _115
REMARK   48  A    between atoms: _115  and  _116
REMARK   49  A    between atoms: _121  and  _123
REMARK   50  A    between atoms: _123  and  _124
REMARK   51  A    between atoms: _123  and  _126
REMARK   52  A    between atoms: _126  and  _127
REMARK   53  A    between atoms: _129  and  _131
REMARK   54  A    between atoms: _131  and  _132
REMARK   55  A    between atoms: _131  and  _134
REMARK   56  A    between atoms: _134  and  _135
REMARK   57  A    between atoms: _138  and  _140
REMARK   58  A    between atoms: _140  and  _141
REMARK   59  A    between atoms: _140  and  _143
REMARK   60  A    between atoms: _143  and  _144
REMARK   61  A    between atoms: _144  and  _145
REMARK   62  A    between atoms: _145  and  _146
REMARK   63  A    between atoms: _146  and  _147
REMARK   64  A    between atoms: _151  and  _153
REMARK   65  A    between atoms: _153  and  _154
REMARK   66  A    between atoms: _153  and  _156
REMARK   67  A    between atoms: _156  and  _157
REMARK   68  A    between atoms: _157  and  _158
REMARK   69  A    between atoms: _158  and  _159
REMARK   70  A    between atoms: _159  and  _160
REMARK   71  A    between atoms: _164  and  _166
REMARK   72  A    between atoms: _166  and  _167
REMARK   73  A    between atoms: _166  and  _169
REMARK   74  A    between atoms: _171  and  _173
REMARK   75  A    between atoms: _173  and  _174
REMARK   76  A    between atoms: _173  and  _176
REMARK   77  A    between atoms: _176  and  _177
REMARK   78  A    between atoms: _177  and  _178
REMARK   79  A    between atoms: _178  and  _179
REMARK   80  A    between atoms: _188  and  _190
REMARK   81  A    between atoms: _190  and  _191
REMARK   82  A    between atoms: _190  and  _193
REMARK   83  A    between atoms: _193  and  _194
REMARK   84  A    between atoms: _198  and  MN_331
REMARK   85  A    between atoms: _199  and  _201
REMARK   86  A    between atoms: _201  and  _202
REMARK   87  A    between atoms: _201  and  _204
REMARK   88  A    between atoms: _204  and  _205
REMARK   89  A    between atoms: _205  and  _206
REMARK   90  A    between atoms: _206  and  _207
REMARK   91  A    between atoms: _207  and  _208
REMARK   92  A    between atoms: _212  and  _214
REMARK   93  A    between atoms: _214  and  _215
REMARK   94  A    between atoms: _214  and  _217
REMARK   95  A    between atoms: _217  and  _218
REMARK   96  A    between atoms: _218  and  _219
REMARK   97  A    between atoms: _219  and  MN_331
REMARK   98  A    between atoms: _221  and  _223
REMARK   99  A    between atoms: _223  and  _224
REMARK  100  A    between atoms: _223  and  _226
REMARK  101  A    between atoms: _226  and  _227
REMARK  102  A    between atoms: _230  and  _232
REMARK  103  A    between atoms: _232  and  _233
REMARK  104  A    between atoms: _232  and  _235
REMARK  105  A    between atoms: _235  and  _236
REMARK  106  A    between atoms: _236  and  _237
REMARK  107  A    between atoms: _240  and  _242
REMARK  108  A    between atoms: _242  and  _243
REMARK  109  A    between atoms: _242  and  _245
REMARK  110  A    between atoms: _245  and  _246
REMARK  111  A    between atoms: _252  and  _254
REMARK  112  A    between atoms: _254  and  _255
REMARK  113  A    between atoms: _257  and  _259
REMARK  114  A    between atoms: _259  and  _260
REMARK  115  A    between atoms: _259  and  _262
REMARK  116  A    between atoms: _265  and  _267
REMARK  117  A    between atoms: _267  and  _268
REMARK  118  A    between atoms: _267  and  _270
REMARK  119  A    between atoms: _270  and  _271
REMARK  120  A    between atoms: _276  and  _278
REMARK  121  A    between atoms: _278  and  _279
REMARK  122  A    between atoms: _278  and  _281
REMARK  123  A    between atoms: _281  and  _282
REMARK  124  A    between atoms: _287  and  _289
REMARK  125  A    between atoms: _289  and  _290
REMARK  126  A    between atoms: _289  and  _292
REMARK  127  A    between atoms: _292  and  _293
REMARK  128  A    between atoms: _295  and  _297
REMARK  129  A    between atoms: _297  and  _298
REMARK  130  A    between atoms: _297  and  _300
REMARK  131  A    between atoms: _300  and  _301
REMARK  132  A    between atoms: _301  and  _302
REMARK  133  A    between atoms: _302  and  _303
REMARK  134  A    between atoms: _313  and  _314
REMARK  135  A    between atoms: _319  and  _321
REMARK  136  A    between atoms: _321  and  _322
REMARK  137  A    between atoms: _321  and  _324
REMARK  138  A    between atoms: _324  and  _325
REMARK                            x       y       z     vdW  Elec       q    Type
REMARK                         _______ _______ _______ _____ _____    ______ ____
ROOT
ATOM      1  CA  LYS A   2       0.332  -1.194   2.386  0.00  0.00    +0.149 C 
ENDROOT
BRANCH   1   2
ATOM      2  C   LYS A   2       0.964  -0.668   1.095  0.00  0.00    +0.241 C 
ATOM      3  O   LYS A   2       1.046   0.548   0.884  0.00  0.00    -0.273 OA
ATOM      4  N   CYS A   3       1.418  -1.590   0.248  0.00  0.00    -0.297 N 
ATOM      5  H   CYS A   3       1.267  -2.594   0.472  0.00  0.00    +0.150 HD
BRANCH   4   6
ATOM      6  CA  CYS A   3       2.124  -1.240  -0.991  0.00  0.00    +0.149 C 
BRANCH   6   7
ATOM      7  C   CYS A   3       1.178  -0.484  -1.908  0.00  0.00    +0.228 C 
ATOM      8  O   CYS A   3       1.472   0.585  -2.434  0.00  0.00    -0.286 OA
ENDBRANCH   6   7
BRANCH   6   9
ATOM      9  CB  CYS A   3       2.607  -2.521  -1.677  0.00  0.00    +0.096 C 
ATOM     10  SG  CYS A   3       3.903  -3.367  -0.788  0.00  0.00    -0.080 S 
ENDBRANCH   6   9
ENDBRANCH   4   6
ENDBRANCH   1   2
BRANCH   1  12
ATOM     11  C   LYS A   1      -1.824  -2.200   1.968  0.00  0.00    +0.238 C 
ATOM     12  N   LYS A   2      -0.523  -2.356   2.189  0.00  0.00    -0.297 N 
ATOM     13  H   LYS A   2      -0.114  -3.312   2.221  0.00  0.00    +0.150 HD
ATOM     14  O   LYS A   1      -2.345  -1.073   1.894  0.00  0.00    -0.274 OA
BRANCH  11  15
ATOM     15  CA  LYS A   1      -2.661  -3.487   1.831  0.00  0.00    +0.145 C 
BRANCH  15  16
ATOM     16  N   LYS A   1      -2.561  -4.148   0.529  0.00  0.00    -0.238 NA
ATOM     17  H   LYS A   1      -2.078  -5.068   0.478  0.00  0.00    +0.142 HD
ENDBRANCH  15  16
BRANCH  15  18
ATOM     18  CB  LYS A   1      -2.287  -4.495   2.930  0.00  0.00    +0.026 C 
BRANCH  18  19
ATOM     19  CG  LYS A   1      -2.517  -3.982   4.331  0.00  0.00    -0.000 C 
BRANCH  19  20
ATOM     20  CD  LYS A   1      -2.637  -5.109   5.336  0.00  0.00    -0.024 C 
BRANCH  20  21
ATOM     21  CE  LYS A   1      -2.797  -4.532   6.744  0.00  0.00    -0.086 C 
BRANCH  21  22
ATOM     22  NZ  LYS A   1      -4.153  -3.958   6.920  0.00  0.00    +0.380 N 
ATOM     23  HZ1 LYS A   1      -4.242  -3.571   7.881  0.00  0.00    -0.089 HD
ATOM     24  HZ2 LYS A   1      -4.865  -4.703   6.777  0.00  0.00    -0.089 HD
ATOM     25  HZ3 LYS A   1      -4.300  -3.199   6.225  0.00  0.00    -0.089 HD
ENDBRANCH  21  22
ENDBRANCH  20  21
ENDBRANCH  19  20
ENDBRANCH  18  19
ENDBRANCH  15  18
ENDBRANCH  11  15
ENDBRANCH   1  12
BRANCH   1  26
ATOM     26  CB  LYS A   2       1.417  -1.531   3.402  0.00  0.00    +0.029 C 
BRANCH  26  27
ATOM     27  CG  LYS A   2       0.868  -2.053   4.722  0.00  0.00    +0.000 C 
BRANCH  27  28
ATOM     28  CD  LYS A   2       0.170  -0.963   5.521  0.00  0.00    -0.024 C 
BRANCH  28  29
ATOM     29  CE  LYS A   2      -0.224  -1.471   6.903  0.00  0.00    -0.086 C 
BRANCH  29  30
ATOM     30  NZ  LYS A   2      -0.846  -0.416   7.732  0.00  0.00    +0.380 N 
ATOM     31  HZ1 LYS A   2      -1.096  -0.810   8.662  0.00  0.00    -0.089 HD
ATOM     32  HZ2 LYS A   2      -0.173   0.368   7.856  0.00  0.00    -0.089 HD
ATOM     33  HZ3 LYS A   2      -1.704  -0.067   7.260  0.00  0.00    -0.089 HD
ENDBRANCH  29  30
ENDBRANCH  28  29
ENDBRANCH  27  28
ENDBRANCH  26  27
ENDBRANCH   1  26
TORSDOF 17
REMARK  Name = ../refined-set-2016/2rke/2rke_pocket.pdb
REMARK  138 active torsions:
REMARK  status: ('A' for Active; 'I' for Inactive)
REMARK    1  A    between atoms: _1  and  _3
REMARK    2  A    between atoms: _3  and  _4
REMARK    3  A    between atoms: _3  and  _6
REMARK    4  A    between atoms: _6  and  _7
REMARK    5  A    between atoms: _10  and  _12
REMARK    6  A    between atoms: _12  and  _13
REMARK    7  A    between atoms: _12  and  _15
REMARK    8  A    between atoms: _18  and  _20
REMARK    9  A    between atoms: _20  and  _21
REMARK   10  A    between atoms: _24  and  _26
REMARK   11  A    between atoms: _26  and  _27
REMARK   12  A    between atoms: _26  and  _29
REMARK   13  A    between atoms: _29  and  _30
REMARK   14  A    between atoms: _30  and  _31
REMARK   15  A    between atoms: _31  and  _32
REMARK   16  A    between atoms: _41  and  _43
REMARK   17  A    between atoms: _43  and  _44
REMARK   18  A    between atoms: _43  and  _46
REMARK   19  A    between atoms: _46  and  _47
REMARK   20  A    between atoms: _50  and  _52
REMARK   21  A    between atoms: _52  and  _53
REMARK   22  A    between atoms: _52  and  _55
REMARK   23  A    between atoms: _55  and  _56
REMARK   24  A    between atoms: _61  and  _62
REMARK   25  A    between atoms: _64  and  _66
REMARK   26  A    between atoms: _66  and  _67
REMARK   27  A    between atoms: _66  and  _69
REMARK   28  A    between atoms: _69  and  _70
REMARK   29  A    between atoms: _70  and  _71
REMARK   30  A    between atoms: _73  and  _75
REMARK   31  A    between atoms: _75  and  _76
REMARK   32  A    between atoms: _75  and  _78
REMARK   33  A    between atoms: _78  and  _79
REMARK   34  A    between atoms: _81  and  _83
REMARK   35  A    between atoms: _83  and  _84
REMARK   36  A    between atoms: _86  and  _88
REMARK   37  A    between atoms: _88  and  _89
REMARK   38  A    between atoms: _88  and  _91
REMARK   39  A    between atoms: _91  and  _92
REMARK   40  A    between atoms: _97  and  _98
REMARK   41  A    between atoms: _100  and  _102
REMARK   42  A    between atoms: _102  and  _103
REMARK   43  A    between atoms: _105  and  _107
REMARK   44  A    between atoms: _107  and  _108
REMARK   45  A    between atoms: _110  and  _112
REMARK   46  A    between atoms: _112  and  _113
REMARK   47  A    between atoms: _112  and  _115
REMARK   48  A    between atoms: _115  and  _116
REMARK   49  A    between atoms: _121  and  _123
REMARK   50  A    between atoms: _123  and  _124
REMARK   51  A    between atoms: _123  and  _126
REMARK   52  A    between atoms: _126  and  _127
REMARK   53  A    between atoms: _129  and  _131
REMARK   54  A    between atoms: _131  and  _132
REMARK   55  A    between atoms: _131  and  _134
REMARK   56  A    between atoms: _134  and  _135
REMARK   57  A    between atoms: _138  and  _140
REMARK   58  A    between atoms: _140  and  _141
REMARK   59  A    between atoms: _140  and  _143
REMARK   60  A    between atoms: _143  and  _144
REMARK   61  A    between atoms: _144  and  _145
REMARK   62  A    between atoms: _145  and  _146
REMARK   63  A    between atoms: _146  and  _147
REMARK   64  A    between atoms: _151  and  _153
REMARK   65  A    between atoms: _153  and  _154
REMARK   66  A    between atoms: _153  and  _156
REMARK   67  A    between atoms: _156  and  _157
REMARK   68  A    between atoms: _157  and  _158
REMARK   69  A    between atoms: _158  and  _159
REMARK   70  A    between atoms: _159  and  _160
REMARK   71  A    between atoms: _164  and  _166
REMARK   72  A    between atoms: _166  and  _167
REMARK   73  A    between atoms: _166  and  _169
REMARK   74  A    between atoms: _171  and  _173
REMARK   75  A    between atoms: _173  and  _174
REMARK   76  A    between atoms: _173  and  _176
REMARK   77  A    between atoms: _176  and  _177
REMARK   78  A    between atoms: _177  and  _178
REMARK   79  A    between atoms: _178  and  _179
REMARK   80  A    between atoms: _188  and  _190
REMARK   81  A    between atoms: _190  and  _191
REMARK   82  A    between atoms: _190  and  _193
REMARK   83  A    between atoms: _193  and  _194
REMARK   84  A    between atoms: _198  and  MN_331
REMARK   85  A    between atoms: _199  and  _201
REMARK   86  A    between atoms: _201  and  _202
REMARK   87  A    between atoms: _201  and  _204
REMARK   88  A    between atoms: _204  and  _205
REMARK   89  A    between atoms: _205  and  _206
REMARK   90  A    between atoms: _206  and  _207
REMARK   91  A    between atoms: _207  and  _208
REMARK   92  A    between atoms: _212  and  _214
REMARK   93  A    between atoms: _214  and  _215
REMARK   94  A    between atoms: _214  and  _217
REMARK   95  A    between atoms: _217  and  _218
REMARK   96  A    between atoms: _218  and  _219
REMARK   97  A    between atoms: _219  and  MN_331
REMARK   98  A    between atoms: _221  and  _223
REMARK   99  A    between atoms: _223  and  _224
REMARK  100  A    between atoms: _223  and  _226
REMARK  101  A    between atoms: _226  and  _227
REMARK  102  A    between atoms: _230  and  _232
REMARK  103  A    between atoms: _232  and  _233
REMARK  104  A    between atoms: _232  and  _235
REMARK  105  A    between atoms: _235  and  _236
REMARK  106  A    between atoms: _236  and  _237
REMARK  107  A    between atoms: _240  and  _242
REMARK  108  A    between atoms: _242  and  _243
REMARK  109  A    between atoms: _242  and  _245
REMARK  110  A    between atoms: _245  and  _246
REMARK  111  A    between atoms: _252  and  _254
REMARK  112  A    between atoms: _254  and  _255
REMARK  113  A    between atoms: _257  and  _259
REMARK  114  A    between atoms: _259  and  _260
REMARK  115  A    between atoms: _259  and  _262
REMARK  116  A    between atoms: _265  and  _267
REMARK  117  A    between atoms: _267  and  _268
REMARK  118  A    between atoms: _267  and  _270
REMARK  119  A    between atoms: _270  and  _271
REMARK  120  A    between atoms: _276  and  _278
REMARK  121  A    between atoms: _278  and  _279
REMARK  122  A    between atoms: _278  and  _281
REMARK  123  A    between atoms: _281  and  _282
REMARK  124  A    between atoms: _287  and  _289
REMARK  125  A    between atoms: _289  and  _290
REMARK  126  A    between atoms: _289  and  _292
REMARK  127  A    between atoms: _292  and  _293
REMARK  128  A    between atoms: _295  and  _297
REMARK  129  A    between atoms: _297  and  _298
REMARK  130  A    between atoms: _297  and  _300
REMARK  131  A    between atoms: _300  and  _301
REMARK  132  A    between atoms: _301  and  _302
REMARK  133  A    between atoms: _302  and  _303
REMARK  134  A    between atoms: _313  and  _314
REMARK  135  A    between atoms: _319  and  _321
REMARK  136  A    between atoms: _321  and  _322
REMARK  137  A    between atoms: _321  and  _324
REMARK  138  A    between atoms: _324  and  _325
REMARK                            x       y       z     vdW  Elec       q    Type
REMARK                         _______ _______ _______ _____ _____    ______ ____
ROOT
ATOM      1  NE  ARG A   1       5.556   1.765   1.929  0.00  0.00    -0.265 N 
ATOM      2  HE  ARG A   1       5.864   2.426   2.670  0.00  0.00    +0.259 HD
ATOM      3  CZ  ARG A   1       5.374   0.494   2.279  0.00  0.00    +0.342 C 
ATOM      4  NH2 ARG A   1       5.577   0.144   3.533  0.00  0.00    -0.292 N 
ATOM      5 HH21 ARG A   1       5.874   0.856   4.230  0.00  0.00    +0.255 HD
ATOM      6 HH22 ARG A   1       5.440  -0.845   3.826  0.00  0.00    +0.255 HD
ATOM      7  NH1 ARG A   1       5.015  -0.421   1.385  0.00  0.00    -0.292 N 
ATOM      8 HH11 ARG A   1       4.878  -1.409   1.679  0.00  0.00    +0.255 HD
ATOM      9 HH12 ARG A   1       4.871  -0.149   0.392  0.00  0.00    +0.255 HD
ENDROOT
BRANCH   1  10
ATOM     10  CD  ARG A   1       5.360   2.299   0.605  0.00  0.00    +0.174 C 
BRANCH  10  11
ATOM     11  CG  ARG A   1       3.848   2.537   0.424  0.00  0.00    +0.045 C 
BRANCH  11  12
ATOM     12  CB  ARG A   1       3.505   3.030  -0.927  0.00  0.00    +0.029 C 
BRANCH  12  13
ATOM     13  CA  ARG A   1       2.257   3.929  -0.912  0.00  0.00    +0.133 C 
BRANCH  13  14
ATOM     14  N   ARG A   1       1.162   3.333  -0.125  0.00  0.00    -0.239 NA
ATOM     15  H   ARG A   1       1.205   2.326   0.129  0.00  0.00    +0.142 HD
ENDBRANCH  13  14
BRANCH  13  16
ATOM     16  C   ARG A   1       1.812   4.362  -2.300  0.00  0.00    +0.224 C 
ATOM     17  O   ARG A   1       1.791   5.558  -2.605  0.00  0.00    -0.287 OA
ENDBRANCH  13  16
ENDBRANCH  12  13
ENDBRANCH  11  12
ENDBRANCH  10  11
ENDBRANCH   1  10
TORSDOF 6
REMARK  Name = ../refined-set-2016/2rke/2rke_pocket.pdb
REMARK  138 active torsions:
REMARK  status: ('A' for Active; 'I' for Inactive)
REMARK    1  A    between atoms: _1  and  _3
REMARK    2  A    between atoms: _3  and  _4
REMARK    3  A    between atoms: _3  and  _6
REMARK    4  A    between atoms: _6  and  _7
REMARK    5  A    between atoms: _10  and  _12
REMARK    6  A    between atoms: _12  and  _13
REMARK    7  A    between atoms: _12  and  _15
REMARK    8  A    between atoms: _18  and  _20
REMARK    9  A    between atoms: _20  and  _21
REMARK   10  A    between atoms: _24  and  _26
REMARK   11  A    between atoms: _26  and  _27
REMARK   12  A    between atoms: _26  and  _29
REMARK   13  A    between atoms: _29  and  _30
REMARK   14  A    between atoms: _30  and  _31
REMARK   15  A    between atoms: _31  and  _32
REMARK   16  A    between atoms: _41  and  _43
REMARK   17  A    between atoms: _43  and  _44
REMARK   18  A    between atoms: _43  and  _46
REMARK   19  A    between atoms: _46  and  _47
REMARK   20  A    between atoms: _50  and  _52
REMARK   21  A    between atoms: _52  and  _53
REMARK   22  A    between atoms: _52  and  _55
REMARK   23  A    between atoms: _55  and  _56
REMARK   24  A    between atoms: _61  and  _62
REMARK   25  A    between atoms: _64  and  _66
REMARK   26  A    between atoms: _66  and  _67
REMARK   27  A    between atoms: _66  and  _69
REMARK   28  A    between atoms: _69  and  _70
REMARK   29  A    between atoms: _70  and  _71
REMARK   30  A    between atoms: _73  and  _75
REMARK   31  A    between atoms: _75  and  _76
REMARK   32  A    between atoms: _75  and  _78
REMARK   33  A    between atoms: _78  and  _79
REMARK   34  A    between atoms: _81  and  _83
REMARK   35  A    between atoms: _83  and  _84
REMARK   36  A    between atoms: _86  and  _88
REMARK   37  A    between atoms: _88  and  _89
REMARK   38  A    between atoms: _88  and  _91
REMARK   39  A    between atoms: _91  and  _92
REMARK   40  A    between atoms: _97  and  _98
REMARK   41  A    between atoms: _100  and  _102
REMARK   42  A    between atoms: _102  and  _103
REMARK   43  A    between atoms: _105  and  _107
REMARK   44  A    between atoms: _107  and  _108
REMARK   45  A    between atoms: _110  and  _112
REMARK   46  A    between atoms: _112  and  _113
REMARK   47  A    between atoms: _112  and  _115
REMARK   48  A    between atoms: _115  and  _116
REMARK   49  A    between atoms: _121  and  _123
REMARK   50  A    between atoms: _123  and  _124
REMARK   51  A    between atoms: _123  and  _126
REMARK   52  A    between atoms: _126  and  _127
REMARK   53  A    between atoms: _129  and  _131
REMARK   54  A    between atoms: _131  and  _132
REMARK   55  A    between atoms: _131  and  _134
REMARK   56  A    between atoms: _134  and  _135
REMARK   57  A    between atoms: _138  and  _140
REMARK   58  A    between atoms: _140  and  _141
REMARK   59  A    between atoms: _140  and  _143
REMARK   60  A    between atoms: _143  and  _144
REMARK   61  A    between atoms: _144  and  _145
REMARK   62  A    between atoms: _145  and  _146
REMARK   63  A    between atoms: _146  and  _147
REMARK   64  A    between atoms: _151  and  _153
REMARK   65  A    between atoms: _153  and  _154
REMARK   66  A    between atoms: _153  and  _156
REMARK   67  A    between atoms: _156  and  _157
REMARK   68  A    between atoms: _157  and  _158
REMARK   69  A    between atoms: _158  and  _159
REMARK   70  A    between atoms: _159  and  _160
REMARK   71  A    between atoms: _164  and  _166
REMARK   72  A    between atoms: _166  and  _167
REMARK   73  A    between atoms: _166  and  _169
REMARK   74  A    between atoms: _171  and  _173
REMARK   75  A    between atoms: _173  and  _174
REMARK   76  A    between atoms: _173  and  _176
REMARK   77  A    between atoms: _176  and  _177
REMARK   78  A    between atoms: _177  and  _178
REMARK   79  A    between atoms: _178  and  _179
REMARK   80  A    between atoms: _188  and  _190
REMARK   81  A    between atoms: _190  and  _191
REMARK   82  A    between atoms: _190  and  _193
REMARK   83  A    between atoms: _193  and  _194
REMARK   84  A    between atoms: _198  and  MN_331
REMARK   85  A    between atoms: _199  and  _201
REMARK   86  A    between atoms: _201  and  _202
REMARK   87  A    between atoms: _201  and  _204
REMARK   88  A    between atoms: _204  and  _205
REMARK   89  A    between atoms: _205  and  _206
REMARK   90  A    between atoms: _206  and  _207
REMARK   91  A    between atoms: _207  and  _208
REMARK   92  A    between atoms: _212  and  _214
REMARK   93  A    between atoms: _214  and  _215
REMARK   94  A    between atoms: _214  and  _217
REMARK   95  A    between atoms: _217  and  _218
REMARK   96  A    between atoms: _218  and  _219
REMARK   97  A    between atoms: _219  and  MN_331
REMARK   98  A    between atoms: _221  and  _223
REMARK   99  A    between atoms: _223  and  _224
REMARK  100  A    between atoms: _223  and  _226
REMARK  101  A    between atoms: _226  and  _227
REMARK  102  A    between atoms: _230  and  _232
REMARK  103  A    between atoms: _232  and  _233
REMARK  104  A    between atoms: _232  and  _235
REMARK  105  A    between atoms: _235  and  _236
REMARK  106  A    between atoms: _236  and  _237
REMARK  107  A    between atoms: _240  and  _242
REMARK  108  A    between atoms: _242  and  _243
REMARK  109  A    between atoms: _242  and  _245
REMARK  110  A    between atoms: _245  and  _246
REMARK  111  A    between atoms: _252  and  _254
REMARK  112  A    between atoms: _254  and  _255
REMARK  113  A    between atoms: _257  and  _259
REMARK  114  A    between atoms: _259  and  _260
REMARK  115  A    between atoms: _259  and  _262
REMARK  116  A    between atoms: _265  and  _267
REMARK  117  A    between atoms: _267  and  _268
REMARK  118  A    between atoms: _267  and  _270
REMARK  119  A    between atoms: _270  and  _271
REMARK  120  A    between atoms: _276  and  _278
REMARK  121  A    between atoms: _278  and  _279
REMARK  122  A    between atoms: _278  and  _281
REMARK  123  A    between atoms: _281  and  _282
REMARK  124  A    between atoms: _287  and  _289
REMARK  125  A    between atoms: _289  and  _290
REMARK  126  A    between atoms: _289  and  _292
REMARK  127  A    between atoms: _292  and  _293
REMARK  128  A    between atoms: _295  and  _297
REMARK  129  A    between atoms: _297  and  _298
REMARK  130  A    between atoms: _297  and  _300
REMARK  131  A    between atoms: _300  and  _301
REMARK  132  A    between atoms: _301  and  _302
REMARK  133  A    between atoms: _302  and  _303
REMARK  134  A    between atoms: _313  and  _314
REMARK  135  A    between atoms: _319  and  _321
REMARK  136  A    between atoms: _321  and  _322
REMARK  137  A    between atoms: _321  and  _324
REMARK  138  A    between atoms: _324  and  _325
REMARK                            x       y       z     vdW  Elec       q    Type
REMARK                         _______ _______ _______ _____ _____    ______ ____
ROOT
ATOM      1  C   UNK A   1      -4.041  -0.983   8.592  0.00  0.00    +0.000 C 
ATOM      2  O   UNK A   1      -3.476  -1.398   7.566  0.00  0.00    +0.000 OA
ENDROOT
BRANCH   1   3
ATOM      3  O   UNK A   1      -3.390  -0.524   9.550  0.00  0.00    +0.000 OA
BRANCH   3   4
ATOM      4 MN   UNK A   1      -1.395  -0.589   9.799  0.00  0.00    +0.000 Mn
ATOM      5  O   UNK A   1      -1.932  -0.536  11.987  0.00  0.00    +0.000 OA
ATOM      6  O   UNK A   1       0.351  -0.686  10.414  0.00  0.00    +0.000 OA
ATOM      7  O   UNK A   1      -1.314  -2.757   9.873  0.00  0.00    +0.000 OA
BRANCH   4  11
ATOM      8  C   UNK A   1      -1.516   3.682   8.963  0.00  0.00    +0.000 A 
ATOM      9  N   UNK A   1      -0.493   3.639   9.883  0.00  0.00    +0.000 NA
ATOM     10  C   UNK A   1      -0.411   2.421  10.394  0.00  0.00    +0.000 A 
ATOM     11  N   UNK A   1      -1.364   1.680   9.857  0.00  0.00    +0.000 N 
ATOM     12  C   UNK A   1      -2.057   2.438   8.945  0.00  0.00    +0.000 A 
BRANCH   8  13
ATOM     13  C   UNK A   1      -1.854   4.926   8.190  0.00  0.00    +0.000 C 
BRANCH  13  14
ATOM     14  C   UNK A   1      -3.312   4.992   7.710  0.00  0.00    +0.000 C 
BRANCH  14  15
ATOM     15  N   UNK A   1      -3.455   6.092   6.775  0.00  0.00    +0.000 NA
ATOM     16  H   UNK A   1      -2.799   6.896   6.851  0.00  0.00    +0.000 HD
ENDBRANCH  14  15
BRANCH  14  17
ATOM     17  C   UNK A   1      -4.269   5.230   8.875  0.00  0.00    +0.000 C 
ATOM     18  O   UNK A   1      -3.834   5.461  10.001  0.00  0.00    +0.000 OA
ENDBRANCH  14  17
ENDBRANCH  13  14
ENDBRANCH   8  13
ENDBRANCH   4  11
ENDBRANCH   3   4
ENDBRANCH   1   3
BRANCH   1  19
ATOM     19  C   UNK A   1      -5.571  -1.085   8.675  0.00  0.00    +0.000 C 
BRANCH  19  20
ATOM     20  C   UNK A   1      -6.249   0.220   9.141  0.00  0.00    +0.000 C 
BRANCH  20  21
ATOM     21  C   UNK A   1      -6.113   1.324   8.068  0.00  0.00    +0.000 C 
ATOM     22  O   UNK A   1      -5.284   2.210   8.205  0.00  0.00    +0.000 OA
ATOM     23  N   ILE A   2      -6.930   1.285   7.014  0.00  0.00    +0.000 N 
ATOM     24  H   ILE A   2      -7.686   0.572   6.978  0.00  0.00    +0.000 HD
BRANCH  23  25
ATOM     25  CA  ILE A   2      -6.776   2.241   5.895  0.00  0.00    +0.000 C 
BRANCH  25  26
ATOM     26  C   ILE A   2      -8.087   2.941   5.543  0.00  0.00    +0.000 C 
ATOM     27  O   ILE A   2      -9.153   2.319   5.558  0.00  0.00    +0.000 OA
ENDBRANCH  25  26
BRANCH  25  28
ATOM     28  CB  ILE A   2      -6.258   1.549   4.583  0.00  0.00    +0.000 C 
ATOM     29  CG2 ILE A   2      -5.595   2.551   3.637  0.00  0.00    +0.000 C 
BRANCH  28  30
ATOM     30  CG1 ILE A   2      -5.360   0.334   4.859  0.00  0.00    +0.000 C 
ATOM     31  CD1 ILE A   2      -3.914   0.630   5.164  0.00  0.00    +0.000 C 
ENDBRANCH  28  30
ENDBRANCH  25  28
ENDBRANCH  23  25
ENDBRANCH  20  21
BRANCH  20  32
ATOM     32  N   UNK A   1      -7.633  -0.043   9.591  0.00  0.00    +0.000 NA
ATOM     33  H   UNK A   1      -8.415   0.042   8.911  0.00  0.00    +0.000 HD
ENDBRANCH  20  32
ENDBRANCH  19  20
ENDBRANCH   1  19
TORSDOF 15
REMARK  Name = ../refined-set-2016/2rke/2rke_pocket.pdb
REMARK  138 active torsions:
REMARK  status: ('A' for Active; 'I' for Inactive)
REMARK    1  A    between atoms: _1  and  _3
REMARK    2  A    between atoms: _3  and  _4
REMARK    3  A    between atoms: _3  and  _6
REMARK    4  A    between atoms: _6  and  _7
REMARK    5  A    between atoms: _10  and  _12
REMARK    6  A    between atoms: _12  and  _13
REMARK    7  A    between atoms: _12  and  _15
REMARK    8  A    between atoms: _18  and  _20
REMARK    9  A    between atoms: _20  and  _21
REMARK   10  A    between atoms: _24  and  _26
REMARK   11  A    between atoms: _26  and  _27
REMARK   12  A    between atoms: _26  and  _29
REMARK   13  A    between atoms: _29  and  _30
REMARK   14  A    between atoms: _30  and  _31
REMARK   15  A    between atoms: _31  and  _32
REMARK   16  A    between atoms: _41  and  _43
REMARK   17  A    between atoms: _43  and  _44
REMARK   18  A    between atoms: _43  and  _46
REMARK   19  A    between atoms: _46  and  _47
REMARK   20  A    between atoms: _50  and  _52
REMARK   21  A    between atoms: _52  and  _53
REMARK   22  A    between atoms: _52  and  _55
REMARK   23  A    between atoms: _55  and  _56
REMARK   24  A    between atoms: _61  and  _62
REMARK   25  A    between atoms: _64  and  _66
REMARK   26  A    between atoms: _66  and  _67
REMARK   27  A    between atoms: _66  and  _69
REMARK   28  A    between atoms: _69  and  _70
REMARK   29  A    between atoms: _70  and  _71
REMARK   30  A    between atoms: _73  and  _75
REMARK   31  A    between atoms: _75  and  _76
REMARK   32  A    between atoms: _75  and  _78
REMARK   33  A    between atoms: _78  and  _79
REMARK   34  A    between atoms: _81  and  _83
REMARK   35  A    between atoms: _83  and  _84
REMARK   36  A    between atoms: _86  and  _88
REMARK   37  A    between atoms: _88  and  _89
REMARK   38  A    between atoms: _88  and  _91
REMARK   39  A    between atoms: _91  and  _92
REMARK   40  A    between atoms: _97  and  _98
REMARK   41  A    between atoms: _100  and  _102
REMARK   42  A    between atoms: _102  and  _103
REMARK   43  A    between atoms: _105  and  _107
REMARK   44  A    between atoms: _107  and  _108
REMARK   45  A    between atoms: _110  and  _112
REMARK   46  A    between atoms: _112  and  _113
REMARK   47  A    between atoms: _112  and  _115
REMARK   48  A    between atoms: _115  and  _116
REMARK   49  A    between atoms: _121  and  _123
REMARK   50  A    between atoms: _123  and  _124
REMARK   51  A    between atoms: _123  and  _126
REMARK   52  A    between atoms: _126  and  _127
REMARK   53  A    between atoms: _129  and  _131
REMARK   54  A    between atoms: _131  and  _132
REMARK   55  A    between atoms: _131  and  _134
REMARK   56  A    between atoms: _134  and  _135
REMARK   57  A    between atoms: _138  and  _140
REMARK   58  A    between atoms: _140  and  _141
REMARK   59  A    between atoms: _140  and  _143
REMARK   60  A    between atoms: _143  and  _144
REMARK   61  A    between atoms: _144  and  _145
REMARK   62  A    between atoms: _145  and  _146
REMARK   63  A    between atoms: _146  and  _147
REMARK   64  A    between atoms: _151  and  _153
REMARK   65  A    between atoms: _153  and  _154
REMARK   66  A    between atoms: _153  and  _156
REMARK   67  A    between atoms: _156  and  _157
REMARK   68  A    between atoms: _157  and  _158
REMARK   69  A    between atoms: _158  and  _159
REMARK   70  A    between atoms: _159  and  _160
REMARK   71  A    between atoms: _164  and  _166
REMARK   72  A    between atoms: _166  and  _167
REMARK   73  A    between atoms: _166  and  _169
REMARK   74  A    between atoms: _171  and  _173
REMARK   75  A    between atoms: _173  and  _174
REMARK   76  A    between atoms: _173  and  _176
REMARK   77  A    between atoms: _176  and  _177
REMARK   78  A    between atoms: _177  and  _178
REMARK   79  A    between atoms: _178  and  _179
REMARK   80  A    between atoms: _188  and  _190
REMARK   81  A    between atoms: _190  and  _191
REMARK   82  A    between atoms: _190  and  _193
REMARK   83  A    between atoms: _193  and  _194
REMARK   84  A    between atoms: _198  and  MN_331
REMARK   85  A    between atoms: _199  and  _201
REMARK   86  A    between atoms: _201  and  _202
REMARK   87  A    between atoms: _201  and  _204
REMARK   88  A    between atoms: _204  and  _205
REMARK   89  A    between atoms: _205  and  _206
REMARK   90  A    between atoms: _206  and  _207
REMARK   91  A    between atoms: _207  and  _208
REMARK   92  A    between atoms: _212  and  _214
REMARK   93  A    between atoms: _214  and  _215
REMARK   94  A    between atoms: _214  and  _217
REMARK   95  A    between atoms: _217  and  _218
REMARK   96  A    between atoms: _218  and  _219
REMARK   97  A    between atoms: _219  and  MN_331
REMARK   98  A    between atoms: _221  and  _223
REMARK   99  A    between atoms: _223  and  _224
REMARK  100  A    between atoms: _223  and  _226
REMARK  101  A    between atoms: _226  and  _227
REMARK  102  A    between atoms: _230  and  _232
REMARK  103  A    between atoms: _232  and  _233
REMARK  104  A    between atoms: _232  and  _235
REMARK  105  A    between atoms: _235  and  _236
REMARK  106  A    between atoms: _236  and  _237
REMARK  107  A    between atoms: _240  and  _242
REMARK  108  A    between atoms: _242  and  _243
REMARK  109  A    between atoms: _242  and  _245
REMARK  110  A    between atoms: _245  and  _246
REMARK  111  A    between atoms: _252  and  _254
REMARK  112  A    between atoms: _254  and  _255
REMARK  113  A    between atoms: _257  and  _259
REMARK  114  A    between atoms: _259  and  _260
REMARK  115  A    between atoms: _259  and  _262
REMARK  116  A    between atoms: _265  and  _267
REMARK  117  A    between atoms: _267  and  _268
REMARK  118  A    between atoms: _267  and  _270
REMARK  119  A    between atoms: _270  and  _271
REMARK  120  A    between atoms: _276  and  _278
REMARK  121  A    between atoms: _278  and  _279
REMARK  122  A    between atoms: _278  and  _281
REMARK  123  A    between atoms: _281  and  _282
REMARK  124  A    between atoms: _287  and  _289
REMARK  125  A    between atoms: _289  and  _290
REMARK  126  A    between atoms: _289  and  _292
REMARK  127  A    between atoms: _292  and  _293
REMARK  128  A    between atoms: _295  and  _297
REMARK  129  A    between atoms: _297  and  _298
REMARK  130  A    between atoms: _297  and  _300
REMARK  131  A    between atoms: _300  and  _301
REMARK  132  A    between atoms: _301  and  _302
REMARK  133  A    between atoms: _302  and  _303
REMARK  134  A    between atoms: _313  and  _314
REMARK  135  A    between atoms: _319  and  _321
REMARK  136  A    between atoms: _321  and  _322
REMARK  137  A    between atoms: _321  and  _324
REMARK  138  A    between atoms: _324  and  _325
REMARK                            x       y       z     vdW  Elec       q    Type
REMARK                         _______ _______ _______ _____ _____    ______ ____
ROOT
ATOM      1  CG  LYS A   1      -4.623   2.052  14.846  0.00  0.00    -0.000 C 
ENDROOT
BRANCH   1   2
ATOM      2  CB  LYS A   1      -5.756   1.079  15.016  0.00  0.00    +0.025 C 
BRANCH   2   3
ATOM      3  CA  LYS A   1      -6.447   1.114  16.373  0.00  0.00    +0.133 C 
BRANCH   3   4
ATOM      4  N   LYS A   1      -5.519   0.753  17.447  0.00  0.00    -0.239 NA
ATOM      5  H   LYS A   1      -4.553   0.449  17.209  0.00  0.00    +0.142 HD
ENDBRANCH   3   4
BRANCH   3   6
ATOM      6  C   LYS A   1      -7.632   0.164  16.314  0.00  0.00    +0.224 C 
ATOM      7  O   LYS A   1      -8.788   0.591  16.337  0.00  0.00    -0.287 OA
ENDBRANCH   3   6
ENDBRANCH   2   3
ENDBRANCH   1   2
BRANCH   1   8
ATOM      8  CD  LYS A   1      -3.958   1.810  13.504  0.00  0.00    -0.024 C 
BRANCH   8   9
ATOM      9  CE  LYS A   1      -4.914   2.151  12.372  0.00  0.00    -0.086 C 
BRANCH   9  10
ATOM     10  NZ  LYS A   1      -4.218   2.112  11.081  0.00  0.00    +0.380 N 
ATOM     11  HZ1 LYS A   1      -3.441   2.803  11.087  0.00  0.00    -0.089 HD
ATOM     12  HZ2 LYS A   1      -3.835   1.158  10.924  0.00  0.00    -0.089 HD
ATOM     13  HZ3 LYS A   1      -4.887   2.348  10.321  0.00  0.00    -0.089 HD
ENDBRANCH   9  10
ENDBRANCH   8   9
ENDBRANCH   1   8
TORSDOF 7
REMARK  Name = ../refined-set-2016/2rke/2rke_pocket.pdb
REMARK  138 active torsions:
REMARK  status: ('A' for Active; 'I' for Inactive)
REMARK    1  A    between atoms: _1  and  _3
REMARK    2  A    between atoms: _3  and  _4
REMARK    3  A    between atoms: _3  and  _6
REMARK    4  A    between atoms: _6  and  _7
REMARK    5  A    between atoms: _10  and  _12
REMARK    6  A    between atoms: _12  and  _13
REMARK    7  A    between atoms: _12  and  _15
REMARK    8  A    between atoms: _18  and  _20
REMARK    9  A    between atoms: _20  and  _21
REMARK   10  A    between atoms: _24  and  _26
REMARK   11  A    between atoms: _26  and  _27
REMARK   12  A    between atoms: _26  and  _29
REMARK   13  A    between atoms: _29  and  _30
REMARK   14  A    between atoms: _30  and  _31
REMARK   15  A    between atoms: _31  and  _32
REMARK   16  A    between atoms: _41  and  _43
REMARK   17  A    between atoms: _43  and  _44
REMARK   18  A    between atoms: _43  and  _46
REMARK   19  A    between atoms: _46  and  _47
REMARK   20  A    between atoms: _50  and  _52
REMARK   21  A    between atoms: _52  and  _53
REMARK   22  A    between atoms: _52  and  _55
REMARK   23  A    between atoms: _55  and  _56
REMARK   24  A    between atoms: _61  and  _62
REMARK   25  A    between atoms: _64  and  _66
REMARK   26  A    between atoms: _66  and  _67
REMARK   27  A    between atoms: _66  and  _69
REMARK   28  A    between atoms: _69  and  _70
REMARK   29  A    between atoms: _70  and  _71
REMARK   30  A    between atoms: _73  and  _75
REMARK   31  A    between atoms: _75  and  _76
REMARK   32  A    between atoms: _75  and  _78
REMARK   33  A    between atoms: _78  and  _79
REMARK   34  A    between atoms: _81  and  _83
REMARK   35  A    between atoms: _83  and  _84
REMARK   36  A    between atoms: _86  and  _88
REMARK   37  A    between atoms: _88  and  _89
REMARK   38  A    between atoms: _88  and  _91
REMARK   39  A    between atoms: _91  and  _92
REMARK   40  A    between atoms: _97  and  _98
REMARK   41  A    between atoms: _100  and  _102
REMARK   42  A    between atoms: _102  and  _103
REMARK   43  A    between atoms: _105  and  _107
REMARK   44  A    between atoms: _107  and  _108
REMARK   45  A    between atoms: _110  and  _112
REMARK   46  A    between atoms: _112  and  _113
REMARK   47  A    between atoms: _112  and  _115
REMARK   48  A    between atoms: _115  and  _116
REMARK   49  A    between atoms: _121  and  _123
REMARK   50  A    between atoms: _123  and  _124
REMARK   51  A    between atoms: _123  and  _126
REMARK   52  A    between atoms: _126  and  _127
REMARK   53  A    between atoms: _129  and  _131
REMARK   54  A    between atoms: _131  and  _132
REMARK   55  A    between atoms: _131  and  _134
REMARK   56  A    between atoms: _134  and  _135
REMARK   57  A    between atoms: _138  and  _140
REMARK   58  A    between atoms: _140  and  _141
REMARK   59  A    between atoms: _140  and  _143
REMARK   60  A    between atoms: _143  and  _144
REMARK   61  A    between atoms: _144  and  _145
REMARK   62  A    between atoms: _145  and  _146
REMARK   63  A    between atoms: _146  and  _147
REMARK   64  A    between atoms: _151  and  _153
REMARK   65  A    between atoms: _153  and  _154
REMARK   66  A    between atoms: _153  and  _156
REMARK   67  A    between atoms: _156  and  _157
REMARK   68  A    between atoms: _157  and  _158
REMARK   69  A    between atoms: _158  and  _159
REMARK   70  A    between atoms: _159  and  _160
REMARK   71  A    between atoms: _164  and  _166
REMARK   72  A    between atoms: _166  and  _167
REMARK   73  A    between atoms: _166  and  _169
REMARK   74  A    between atoms: _171  and  _173
REMARK   75  A    between atoms: _173  and  _174
REMARK   76  A    between atoms: _173  and  _176
REMARK   77  A    between atoms: _176  and  _177
REMARK   78  A    between atoms: _177  and  _178
REMARK   79  A    between atoms: _178  and  _179
REMARK   80  A    between atoms: _188  and  _190
REMARK   81  A    between atoms: _190  and  _191
REMARK   82  A    between atoms: _190  and  _193
REMARK   83  A    between atoms: _193  and  _194
REMARK   84  A    between atoms: _198  and  MN_331
REMARK   85  A    between atoms: _199  and  _201
REMARK   86  A    between atoms: _201  and  _202
REMARK   87  A    between atoms: _201  and  _204
REMARK   88  A    between atoms: _204  and  _205
REMARK   89  A    between atoms: _205  and  _206
REMARK   90  A    between atoms: _206  and  _207
REMARK   91  A    between atoms: _207  and  _208
REMARK   92  A    between atoms: _212  and  _214
REMARK   93  A    between atoms: _214  and  _215
REMARK   94  A    between atoms: _214  and  _217
REMARK   95  A    between atoms: _217  and  _218
REMARK   96  A    between atoms: _218  and  _219
REMARK   97  A    between atoms: _219  and  MN_331
REMARK   98  A    between atoms: _221  and  _223
REMARK   99  A    between atoms: _223  and  _224
REMARK  100  A    between atoms: _223  and  _226
REMARK  101  A    between atoms: _226  and  _227
REMARK  102  A    between atoms: _230  and  _232
REMARK  103  A    between atoms: _232  and  _233
REMARK  104  A    between atoms: _232  and  _235
REMARK  105  A    between atoms: _235  and  _236
REMARK  106  A    between atoms: _236  and  _237
REMARK  107  A    between atoms: _240  and  _242
REMARK  108  A    between atoms: _242  and  _243
REMARK  109  A    between atoms: _242  and  _245
REMARK  110  A    between atoms: _245  and  _246
REMARK  111  A    between atoms: _252  and  _254
REMARK  112  A    between atoms: _254  and  _255
REMARK  113  A    between atoms: _257  and  _259
REMARK  114  A    between atoms: _259  and  _260
REMARK  115  A    between atoms: _259  and  _262
REMARK  116  A    between atoms: _265  and  _267
REMARK  117  A    between atoms: _267  and  _268
REMARK  118  A    between atoms: _267  and  _270
REMARK  119  A    between atoms: _270  and  _271
REMARK  120  A    between atoms: _276  and  _278
REMARK  121  A    between atoms: _278  and  _279
REMARK  122  A    between atoms: _278  and  _281
REMARK  123  A    between atoms: _281  and  _282
REMARK  124  A    between atoms: _287  and  _289
REMARK  125  A    between atoms: _289  and  _290
REMARK  126  A    between atoms: _289  and  _292
REMARK  127  A    between atoms: _292  and  _293
REMARK  128  A    between atoms: _295  and  _297
REMARK  129  A    between atoms: _297  and  _298
REMARK  130  A    between atoms: _297  and  _300
REMARK  131  A    between atoms: _300  and  _301
REMARK  132  A    between atoms: _301  and  _302
REMARK  133  A    between atoms: _302  and  _303
REMARK  134  A    between atoms: _313  and  _314
REMARK  135  A    between atoms: _319  and  _321
REMARK  136  A    between atoms: _321  and  _322
REMARK  137  A    between atoms: _321  and  _324
REMARK  138  A    between atoms: _324  and  _325
REMARK                            x       y       z     vdW  Elec       q    Type
REMARK                         _______ _______ _______ _____ _____    ______ ____
ROOT
ATOM      1  CA  GLU A   1      -9.800  -3.497   2.650  0.00  0.00    +0.134 C 
ENDROOT
BRANCH   1   2
ATOM      2  N   GLU A   1     -10.011  -2.088   2.303  0.00  0.00    -0.239 NA
ATOM      3  H   GLU A   1      -9.941  -1.369   3.051  0.00  0.00    +0.142 HD
ENDBRANCH   1   2
BRANCH   1   4
ATOM      4  C   GLU A   1     -11.118  -4.265   2.832  0.00  0.00    +0.224 C 
ATOM      5  O   GLU A   1     -12.189  -3.654   2.939  0.00  0.00    -0.287 OA
ENDBRANCH   1   4
BRANCH   1   6
ATOM      6  CB  GLU A   1      -8.957  -3.608   3.916  0.00  0.00    +0.037 C 
BRANCH   6   7
ATOM      7  CG  GLU A   1      -7.612  -2.890   3.845  0.00  0.00    +0.116 C 
BRANCH   7   8
ATOM      8  CD  GLU A   1      -6.699  -3.332   4.959  0.00  0.00    +0.365 C 
ATOM      9  OE2 GLU A   1      -6.931  -2.938   6.122  0.00  0.00    -0.246 OA
ATOM     10  OE1 GLU A   1      -5.750  -4.089   4.675  0.00  0.00    -0.246 OA
ENDBRANCH   7   8
ENDBRANCH   6   7
ENDBRANCH   1   6
TORSDOF 5
REMARK  Name = ../refined-set-2016/2rke/2rke_pocket.pdb
REMARK  138 active torsions:
REMARK  status: ('A' for Active; 'I' for Inactive)
REMARK    1  A    between atoms: _1  and  _3
REMARK    2  A    between atoms: _3  and  _4
REMARK    3  A    between atoms: _3  and  _6
REMARK    4  A    between atoms: _6  and  _7
REMARK    5  A    between atoms: _10  and  _12
REMARK    6  A    between atoms: _12  and  _13
REMARK    7  A    between atoms: _12  and  _15
REMARK    8  A    between atoms: _18  and  _20
REMARK    9  A    between atoms: _20  and  _21
REMARK   10  A    between atoms: _24  and  _26
REMARK   11  A    between atoms: _26  and  _27
REMARK   12  A    between atoms: _26  and  _29
REMARK   13  A    between atoms: _29  and  _30
REMARK   14  A    between atoms: _30  and  _31
REMARK   15  A    between atoms: _31  and  _32
REMARK   16  A    between atoms: _41  and  _43
REMARK   17  A    between atoms: _43  and  _44
REMARK   18  A    between atoms: _43  and  _46
REMARK   19  A    between atoms: _46  and  _47
REMARK   20  A    between atoms: _50  and  _52
REMARK   21  A    between atoms: _52  and  _53
REMARK   22  A    between atoms: _52  and  _55
REMARK   23  A    between atoms: _55  and  _56
REMARK   24  A    between atoms: _61  and  _62
REMARK   25  A    between atoms: _64  and  _66
REMARK   26  A    between atoms: _66  and  _67
REMARK   27  A    between atoms: _66  and  _69
REMARK   28  A    between atoms: _69  and  _70
REMARK   29  A    between atoms: _70  and  _71
REMARK   30  A    between atoms: _73  and  _75
REMARK   31  A    between atoms: _75  and  _76
REMARK   32  A    between atoms: _75  and  _78
REMARK   33  A    between atoms: _78  and  _79
REMARK   34  A    between atoms: _81  and  _83
REMARK   35  A    between atoms: _83  and  _84
REMARK   36  A    between atoms: _86  and  _88
REMARK   37  A    between atoms: _88  and  _89
REMARK   38  A    between atoms: _88  and  _91
REMARK   39  A    between atoms: _91  and  _92
REMARK   40  A    between atoms: _97  and  _98
REMARK   41  A    between atoms: _100  and  _102
REMARK   42  A    between atoms: _102  and  _103
REMARK   43  A    between atoms: _105  and  _107
REMARK   44  A    between atoms: _107  and  _108
REMARK   45  A    between atoms: _110  and  _112
REMARK   46  A    between atoms: _112  and  _113
REMARK   47  A    between atoms: _112  and  _115
REMARK   48  A    between atoms: _115  and  _116
REMARK   49  A    between atoms: _121  and  _123
REMARK   50  A    between atoms: _123  and  _124
REMARK   51  A    between atoms: _123  and  _126
REMARK   52  A    between atoms: _126  and  _127
REMARK   53  A    between atoms: _129  and  _131
REMARK   54  A    between atoms: _131  and  _132
REMARK   55  A    between atoms: _131  and  _134
REMARK   56  A    between atoms: _134  and  _135
REMARK   57  A    between atoms: _138  and  _140
REMARK   58  A    between atoms: _140  and  _141
REMARK   59  A    between atoms: _140  and  _143
REMARK   60  A    between atoms: _143  and  _144
REMARK   61  A    between atoms: _144  and  _145
REMARK   62  A    between atoms: _145  and  _146
REMARK   63  A    between atoms: _146  and  _147
REMARK   64  A    between atoms: _151  and  _153
REMARK   65  A    between atoms: _153  and  _154
REMARK   66  A    between atoms: _153  and  _156
REMARK   67  A    between atoms: _156  and  _157
REMARK   68  A    between atoms: _157  and  _158
REMARK   69  A    between atoms: _158  and  _159
REMARK   70  A    between atoms: _159  and  _160
REMARK   71  A    between atoms: _164  and  _166
REMARK   72  A    between atoms: _166  and  _167
REMARK   73  A    between atoms: _166  and  _169
REMARK   74  A    between atoms: _171  and  _173
REMARK   75  A    between atoms: _173  and  _174
REMARK   76  A    between atoms: _173  and  _176
REMARK   77  A    between atoms: _176  and  _177
REMARK   78  A    between atoms: _177  and  _178
REMARK   79  A    between atoms: _178  and  _179
REMARK   80  A    between atoms: _188  and  _190
REMARK   81  A    between atoms: _190  and  _191
REMARK   82  A    between atoms: _190  and  _193
REMARK   83  A    between atoms: _193  and  _194
REMARK   84  A    between atoms: _198  and  MN_331
REMARK   85  A    between atoms: _199  and  _201
REMARK   86  A    between atoms: _201  and  _202
REMARK   87  A    between atoms: _201  and  _204
REMARK   88  A    between atoms: _204  and  _205
REMARK   89  A    between atoms: _205  and  _206
REMARK   90  A    between atoms: _206  and  _207
REMARK   91  A    between atoms: _207  and  _208
REMARK   92  A    between atoms: _212  and  _214
REMARK   93  A    between atoms: _214  and  _215
REMARK   94  A    between atoms: _214  and  _217
REMARK   95  A    between atoms: _217  and  _218
REMARK   96  A    between atoms: _218  and  _219
REMARK   97  A    between atoms: _219  and  MN_331
REMARK   98  A    between atoms: _221  and  _223
REMARK   99  A    between atoms: _223  and  _224
REMARK  100  A    between atoms: _223  and  _226
REMARK  101  A    between atoms: _226  and  _227
REMARK  102  A    between atoms: _230  and  _232
REMARK  103  A    between atoms: _232  and  _233
REMARK  104  A    between atoms: _232  and  _235
REMARK  105  A    between atoms: _235  and  _236
REMARK  106  A    between atoms: _236  and  _237
REMARK  107  A    between atoms: _240  and  _242
REMARK  108  A    between atoms: _242  and  _243
REMARK  109  A    between atoms: _242  and  _245
REMARK  110  A    between atoms: _245  and  _246
REMARK  111  A    between atoms: _252  and  _254
REMARK  112  A    between atoms: _254  and  _255
REMARK  113  A    between atoms: _257  and  _259
REMARK  114  A    between atoms: _259  and  _260
REMARK  115  A    between atoms: _259  and  _262
REMARK  116  A    between atoms: _265  and  _267
REMARK  117  A    between atoms: _267  and  _268
REMARK  118  A    between atoms: _267  and  _270
REMARK  119  A    between atoms: _270  and  _271
REMARK  120  A    between atoms: _276  and  _278
REMARK  121  A    between atoms: _278  and  _279
REMARK  122  A    between atoms: _278  and  _281
REMARK  123  A    between atoms: _281  and  _282
REMARK  124  A    between atoms: _287  and  _289
REMARK  125  A    between atoms: _289  and  _290
REMARK  126  A    between atoms: _289  and  _292
REMARK  127  A    between atoms: _292  and  _293
REMARK  128  A    between atoms: _295  and  _297
REMARK  129  A    between atoms: _297  and  _298
REMARK  130  A    between atoms: _297  and  _300
REMARK  131  A    between atoms: _300  and  _301
REMARK  132  A    between atoms: _301  and  _302
REMARK  133  A    between atoms: _302  and  _303
REMARK  134  A    between atoms: _313  and  _314
REMARK  135  A    between atoms: _319  and  _321
REMARK  136  A    between atoms: _321  and  _322
REMARK  137  A    between atoms: _321  and  _324
REMARK  138  A    between atoms: _324  and  _325
REMARK                            x       y       z     vdW  Elec       q    Type
REMARK                         _______ _______ _______ _____ _____    ______ ____
ROOT
ATOM      1  C   PHE A   1      -4.534  -7.540  10.928  0.00  0.00    +0.239 C 
ATOM      2  N   GLY A   2      -5.141  -7.943  12.044  0.00  0.00    -0.296 N 
ATOM      3  H   GLY A   2      -5.889  -8.663  11.977  0.00  0.00    +0.150 HD
ATOM      4  O   PHE A   1      -3.547  -6.789  10.925  0.00  0.00    -0.274 OA
ENDROOT
BRANCH   1   5
ATOM      5  CA  PHE A   1      -5.130  -8.069   9.624  0.00  0.00    +0.149 C 
BRANCH   5   6
ATOM      6  N   PHE A   1      -6.423  -7.418   9.448  0.00  0.00    -0.238 NA
ATOM      7  H   PHE A   1      -6.442  -6.400   9.236  0.00  0.00    +0.142 HD
ENDBRANCH   5   6
BRANCH   5   8
ATOM      8  CB  PHE A   1      -4.220  -7.774   8.420  0.00  0.00    +0.053 C 
BRANCH   8   9
ATOM      9  CG  PHE A   1      -3.032  -8.689   8.304  0.00  0.00    -0.020 A 
ATOM     10  CD2 PHE A   1      -1.742  -8.190   8.467  0.00  0.00    -0.004 A 
ATOM     11  CE2 PHE A   1      -0.629  -9.029   8.353  0.00  0.00    -0.000 A 
ATOM     12  CZ  PHE A   1      -0.809 -10.383   8.070  0.00  0.00    -0.000 A 
ATOM     13  CE1 PHE A   1      -2.096 -10.894   7.901  0.00  0.00    -0.000 A 
ATOM     14  CD1 PHE A   1      -3.197 -10.046   8.013  0.00  0.00    -0.004 A 
ENDBRANCH   8   9
ENDBRANCH   5   8
ENDBRANCH   1   5
BRANCH   2  15
ATOM     15  CA  GLY A   2      -4.790  -7.405  13.364  0.00  0.00    +0.176 C 
BRANCH  15  16
ATOM     16  C   GLY A   2      -3.669  -8.104  14.114  0.00  0.00    +0.243 C 
ATOM     17  N   VAL A   3      -2.978  -7.342  14.963  0.00  0.00    -0.298 N 
ATOM     18  H   VAL A   3      -3.168  -6.320  14.982  0.00  0.00    +0.150 HD
ATOM     19  O   GLY A   2      -3.427  -9.298  13.925  0.00  0.00    -0.273 OA
BRANCH  17  20
ATOM     20  CA  VAL A   3      -1.964  -7.882  15.868  0.00  0.00    +0.137 C 
BRANCH  20  21
ATOM     21  CB  VAL A   3      -1.166  -6.751  16.587  0.00  0.00    +0.026 C 
ATOM     22  CG2 VAL A   3      -0.220  -7.327  17.645  0.00  0.00    +0.002 C 
ATOM     23  CG1 VAL A   3      -0.377  -5.933  15.576  0.00  0.00    +0.002 C 
ENDBRANCH  20  21
BRANCH  20  24
ATOM     24  C   VAL A   3      -2.664  -8.784  16.880  0.00  0.00    +0.227 C 
ATOM     25  O   VAL A   3      -3.632  -8.367  17.531  0.00  0.00    -0.286 OA
ENDBRANCH  20  24
ENDBRANCH  17  20
ENDBRANCH  15  16
ENDBRANCH   2  15
TORSDOF 9
REMARK  Name = ../refined-set-2016/2rke/2rke_pocket.pdb
REMARK  138 active torsions:
REMARK  status: ('A' for Active; 'I' for Inactive)
REMARK    1  A    between atoms: _1  and  _3
REMARK    2  A    between atoms: _3  and  _4
REMARK    3  A    between atoms: _3  and  _6
REMARK    4  A    between atoms: _6  and  _7
REMARK    5  A    between atoms: _10  and  _12
REMARK    6  A    between atoms: _12  and  _13
REMARK    7  A    between atoms: _12  and  _15
REMARK    8  A    between atoms: _18  and  _20
REMARK    9  A    between atoms: _20  and  _21
REMARK   10  A    between atoms: _24  and  _26
REMARK   11  A    between atoms: _26  and  _27
REMARK   12  A    between atoms: _26  and  _29
REMARK   13  A    between atoms: _29  and  _30
REMARK   14  A    between atoms: _30  and  _31
REMARK   15  A    between atoms: _31  and  _32
REMARK   16  A    between atoms: _41  and  _43
REMARK   17  A    between atoms: _43  and  _44
REMARK   18  A    between atoms: _43  and  _46
REMARK   19  A    between atoms: _46  and  _47
REMARK   20  A    between atoms: _50  and  _52
REMARK   21  A    between atoms: _52  and  _53
REMARK   22  A    between atoms: _52  and  _55
REMARK   23  A    between atoms: _55  and  _56
REMARK   24  A    between atoms: _61  and  _62
REMARK   25  A    between atoms: _64  and  _66
REMARK   26  A    between atoms: _66  and  _67
REMARK   27  A    between atoms: _66  and  _69
REMARK   28  A    between atoms: _69  and  _70
REMARK   29  A    between atoms: _70  and  _71
REMARK   30  A    between atoms: _73  and  _75
REMARK   31  A    between atoms: _75  and  _76
REMARK   32  A    between atoms: _75  and  _78
REMARK   33  A    between atoms: _78  and  _79
REMARK   34  A    between atoms: _81  and  _83
REMARK   35  A    between atoms: _83  and  _84
REMARK   36  A    between atoms: _86  and  _88
REMARK   37  A    between atoms: _88  and  _89
REMARK   38  A    between atoms: _88  and  _91
REMARK   39  A    between atoms: _91  and  _92
REMARK   40  A    between atoms: _97  and  _98
REMARK   41  A    between atoms: _100  and  _102
REMARK   42  A    between atoms: _102  and  _103
REMARK   43  A    between atoms: _105  and  _107
REMARK   44  A    between atoms: _107  and  _108
REMARK   45  A    between atoms: _110  and  _112
REMARK   46  A    between atoms: _112  and  _113
REMARK   47  A    between atoms: _112  and  _115
REMARK   48  A    between atoms: _115  and  _116
REMARK   49  A    between atoms: _121  and  _123
REMARK   50  A    between atoms: _123  and  _124
REMARK   51  A    between atoms: _123  and  _126
REMARK   52  A    between atoms: _126  and  _127
REMARK   53  A    between atoms: _129  and  _131
REMARK   54  A    between atoms: _131  and  _132
REMARK   55  A    between atoms: _131  and  _134
REMARK   56  A    between atoms: _134  and  _135
REMARK   57  A    between atoms: _138  and  _140
REMARK   58  A    between atoms: _140  and  _141
REMARK   59  A    between atoms: _140  and  _143
REMARK   60  A    between atoms: _143  and  _144
REMARK   61  A    between atoms: _144  and  _145
REMARK   62  A    between atoms: _145  and  _146
REMARK   63  A    between atoms: _146  and  _147
REMARK   64  A    between atoms: _151  and  _153
REMARK   65  A    between atoms: _153  and  _154
REMARK   66  A    between atoms: _153  and  _156
REMARK   67  A    between atoms: _156  and  _157
REMARK   68  A    between atoms: _157  and  _158
REMARK   69  A    between atoms: _158  and  _159
REMARK   70  A    between atoms: _159  and  _160
REMARK   71  A    between atoms: _164  and  _166
REMARK   72  A    between atoms: _166  and  _167
REMARK   73  A    between atoms: _166  and  _169
REMARK   74  A    between atoms: _171  and  _173
REMARK   75  A    between atoms: _173  and  _174
REMARK   76  A    between atoms: _173  and  _176
REMARK   77  A    between atoms: _176  and  _177
REMARK   78  A    between atoms: _177  and  _178
REMARK   79  A    between atoms: _178  and  _179
REMARK   80  A    between atoms: _188  and  _190
REMARK   81  A    between atoms: _190  and  _191
REMARK   82  A    between atoms: _190  and  _193
REMARK   83  A    between atoms: _193  and  _194
REMARK   84  A    between atoms: _198  and  MN_331
REMARK   85  A    between atoms: _199  and  _201
REMARK   86  A    between atoms: _201  and  _202
REMARK   87  A    between atoms: _201  and  _204
REMARK   88  A    between atoms: _204  and  _205
REMARK   89  A    between atoms: _205  and  _206
REMARK   90  A    between atoms: _206  and  _207
REMARK   91  A    between atoms: _207  and  _208
REMARK   92  A    between atoms: _212  and  _214
REMARK   93  A    between atoms: _214  and  _215
REMARK   94  A    between atoms: _214  and  _217
REMARK   95  A    between atoms: _217  and  _218
REMARK   96  A    between atoms: _218  and  _219
REMARK   97  A    between atoms: _219  and  MN_331
REMARK   98  A    between atoms: _221  and  _223
REMARK   99  A    between atoms: _223  and  _224
REMARK  100  A    between atoms: _223  and  _226
REMARK  101  A    between atoms: _226  and  _227
REMARK  102  A    between atoms: _230  and  _232
REMARK  103  A    between atoms: _232  and  _233
REMARK  104  A    between atoms: _232  and  _235
REMARK  105  A    between atoms: _235  and  _236
REMARK  106  A    between atoms: _236  and  _237
REMARK  107  A    between atoms: _240  and  _242
REMARK  108  A    between atoms: _242  and  _243
REMARK  109  A    between atoms: _242  and  _245
REMARK  110  A    between atoms: _245  and  _246
REMARK  111  A    between atoms: _252  and  _254
REMARK  112  A    between atoms: _254  and  _255
REMARK  113  A    between atoms: _257  and  _259
REMARK  114  A    between atoms: _259  and  _260
REMARK  115  A    between atoms: _259  and  _262
REMARK  116  A    between atoms: _265  and  _267
REMARK  117  A    between atoms: _267  and  _268
REMARK  118  A    between atoms: _267  and  _270
REMARK  119  A    between atoms: _270  and  _271
REMARK  120  A    between atoms: _276  and  _278
REMARK  121  A    between atoms: _278  and  _279
REMARK  122  A    between atoms: _278  and  _281
REMARK  123  A    between atoms: _281  and  _282
REMARK  124  A    between atoms: _287  and  _289
REMARK  125  A    between atoms: _289  and  _290
REMARK  126  A    between atoms: _289  and  _292
REMARK  127  A    between atoms: _292  and  _293
REMARK  128  A    between atoms: _295  and  _297
REMARK  129  A    between atoms: _297  and  _298
REMARK  130  A    between atoms: _297  and  _300
REMARK  131  A    between atoms: _300  and  _301
REMARK  132  A    between atoms: _301  and  _302
REMARK  133  A    between atoms: _302  and  _303
REMARK  134  A    between atoms: _313  and  _314
REMARK  135  A    between atoms: _319  and  _321
REMARK  136  A    between atoms: _321  and  _322
REMARK  137  A    between atoms: _321  and  _324
REMARK  138  A    between atoms: _324  and  _325
REMARK                            x       y       z     vdW  Elec       q    Type
REMARK                         _______ _______ _______ _____ _____    ______ ____
ROOT
ATOM      1  CB  HIS A   1       6.118 -13.816  16.524  0.00  0.00    +0.072 C 
ENDROOT
BRANCH   1   2
ATOM      2  CG  HIS A   1       7.160 -12.845  16.067  0.00  0.00    +0.082 A 
ATOM      3  CD2 HIS A   1       8.512 -12.911  16.089  0.00  0.00    +0.115 A 
ATOM      4  NE2 HIS A   1       8.986 -11.737  15.555  0.00  0.00    -0.221 NA
ATOM      5  CE1 HIS A   1       7.960 -10.975  15.222  0.00  0.00    +0.199 A 
ATOM      6  ND1 HIS A   1       6.847 -11.620  15.521  0.00  0.00    -0.227 NA
ENDBRANCH   1   2
BRANCH   1   7
ATOM      7  CA  HIS A   1       5.731 -13.651  17.996  0.00  0.00    +0.139 C 
BRANCH   7   8
ATOM      8  N   HIS A   1       4.891 -14.753  18.452  0.00  0.00    -0.239 NA
ATOM      9  H   HIS A   1       4.517 -15.435  17.762  0.00  0.00    +0.142 HD
ENDBRANCH   7   8
BRANCH   7  10
ATOM     10  C   HIS A   1       4.978 -12.341  18.233  0.00  0.00    +0.224 C 
ATOM     11  O   HIS A   1       3.759 -12.299  18.058  0.00  0.00    -0.287 OA
ENDBRANCH   7  10
ENDBRANCH   1   7
TORSDOF 4
REMARK  Name = ../refined-set-2016/2rke/2rke_pocket.pdb
REMARK  138 active torsions:
REMARK  status: ('A' for Active; 'I' for Inactive)
REMARK    1  A    between atoms: _1  and  _3
REMARK    2  A    between atoms: _3  and  _4
REMARK    3  A    between atoms: _3  and  _6
REMARK    4  A    between atoms: _6  and  _7
REMARK    5  A    between atoms: _10  and  _12
REMARK    6  A    between atoms: _12  and  _13
REMARK    7  A    between atoms: _12  and  _15
REMARK    8  A    between atoms: _18  and  _20
REMARK    9  A    between atoms: _20  and  _21
REMARK   10  A    between atoms: _24  and  _26
REMARK   11  A    between atoms: _26  and  _27
REMARK   12  A    between atoms: _26  and  _29
REMARK   13  A    between atoms: _29  and  _30
REMARK   14  A    between atoms: _30  and  _31
REMARK   15  A    between atoms: _31  and  _32
REMARK   16  A    between atoms: _41  and  _43
REMARK   17  A    between atoms: _43  and  _44
REMARK   18  A    between atoms: _43  and  _46
REMARK   19  A    between atoms: _46  and  _47
REMARK   20  A    between atoms: _50  and  _52
REMARK   21  A    between atoms: _52  and  _53
REMARK   22  A    between atoms: _52  and  _55
REMARK   23  A    between atoms: _55  and  _56
REMARK   24  A    between atoms: _61  and  _62
REMARK   25  A    between atoms: _64  and  _66
REMARK   26  A    between atoms: _66  and  _67
REMARK   27  A    between atoms: _66  and  _69
REMARK   28  A    between atoms: _69  and  _70
REMARK   29  A    between atoms: _70  and  _71
REMARK   30  A    between atoms: _73  and  _75
REMARK   31  A    between atoms: _75  and  _76
REMARK   32  A    between atoms: _75  and  _78
REMARK   33  A    between atoms: _78  and  _79
REMARK   34  A    between atoms: _81  and  _83
REMARK   35  A    between atoms: _83  and  _84
REMARK   36  A    between atoms: _86  and  _88
REMARK   37  A    between atoms: _88  and  _89
REMARK   38  A    between atoms: _88  and  _91
REMARK   39  A    between atoms: _91  and  _92
REMARK   40  A    between atoms: _97  and  _98
REMARK   41  A    between atoms: _100  and  _102
REMARK   42  A    between atoms: _102  and  _103
REMARK   43  A    between atoms: _105  and  _107
REMARK   44  A    between atoms: _107  and  _108
REMARK   45  A    between atoms: _110  and  _112
REMARK   46  A    between atoms: _112  and  _113
REMARK   47  A    between atoms: _112  and  _115
REMARK   48  A    between atoms: _115  and  _116
REMARK   49  A    between atoms: _121  and  _123
REMARK   50  A    between atoms: _123  and  _124
REMARK   51  A    between atoms: _123  and  _126
REMARK   52  A    between atoms: _126  and  _127
REMARK   53  A    between atoms: _129  and  _131
REMARK   54  A    between atoms: _131  and  _132
REMARK   55  A    between atoms: _131  and  _134
REMARK   56  A    between atoms: _134  and  _135
REMARK   57  A    between atoms: _138  and  _140
REMARK   58  A    between atoms: _140  and  _141
REMARK   59  A    between atoms: _140  and  _143
REMARK   60  A    between atoms: _143  and  _144
REMARK   61  A    between atoms: _144  and  _145
REMARK   62  A    between atoms: _145  and  _146
REMARK   63  A    between atoms: _146  and  _147
REMARK   64  A    between atoms: _151  and  _153
REMARK   65  A    between atoms: _153  and  _154
REMARK   66  A    between atoms: _153  and  _156
REMARK   67  A    between atoms: _156  and  _157
REMARK   68  A    between atoms: _157  and  _158
REMARK   69  A    between atoms: _158  and  _159
REMARK   70  A    between atoms: _159  and  _160
REMARK   71  A    between atoms: _164  and  _166
REMARK   72  A    between atoms: _166  and  _167
REMARK   73  A    between atoms: _166  and  _169
REMARK   74  A    between atoms: _171  and  _173
REMARK   75  A    between atoms: _173  and  _174
REMARK   76  A    between atoms: _173  and  _176
REMARK   77  A    between atoms: _176  and  _177
REMARK   78  A    between atoms: _177  and  _178
REMARK   79  A    between atoms: _178  and  _179
REMARK   80  A    between atoms: _188  and  _190
REMARK   81  A    between atoms: _190  and  _191
REMARK   82  A    between atoms: _190  and  _193
REMARK   83  A    between atoms: _193  and  _194
REMARK   84  A    between atoms: _198  and  MN_331
REMARK   85  A    between atoms: _199  and  _201
REMARK   86  A    between atoms: _201  and  _202
REMARK   87  A    between atoms: _201  and  _204
REMARK   88  A    between atoms: _204  and  _205
REMARK   89  A    between atoms: _205  and  _206
REMARK   90  A    between atoms: _206  and  _207
REMARK   91  A    between atoms: _207  and  _208
REMARK   92  A    between atoms: _212  and  _214
REMARK   93  A    between atoms: _214  and  _215
REMARK   94  A    between atoms: _214  and  _217
REMARK   95  A    between atoms: _217  and  _218
REMARK   96  A    between atoms: _218  and  _219
REMARK   97  A    between atoms: _219  and  MN_331
REMARK   98  A    between atoms: _221  and  _223
REMARK   99  A    between atoms: _223  and  _224
REMARK  100  A    between atoms: _223  and  _226
REMARK  101  A    between atoms: _226  and  _227
REMARK  102  A    between atoms: _230  and  _232
REMARK  103  A    between atoms: _232  and  _233
REMARK  104  A    between atoms: _232  and  _235
REMARK  105  A    between atoms: _235  and  _236
REMARK  106  A    between atoms: _236  and  _237
REMARK  107  A    between atoms: _240  and  _242
REMARK  108  A    between atoms: _242  and  _243
REMARK  109  A    between atoms: _242  and  _245
REMARK  110  A    between atoms: _245  and  _246
REMARK  111  A    between atoms: _252  and  _254
REMARK  112  A    between atoms: _254  and  _255
REMARK  113  A    between atoms: _257  and  _259
REMARK  114  A    between atoms: _259  and  _260
REMARK  115  A    between atoms: _259  and  _262
REMARK  116  A    between atoms: _265  and  _267
REMARK  117  A    between atoms: _267  and  _268
REMARK  118  A    between atoms: _267  and  _270
REMARK  119  A    between atoms: _270  and  _271
REMARK  120  A    between atoms: _276  and  _278
REMARK  121  A    between atoms: _278  and  _279
REMARK  122  A    between atoms: _278  and  _281
REMARK  123  A    between atoms: _281  and  _282
REMARK  124  A    between atoms: _287  and  _289
REMARK  125  A    between atoms: _289  and  _290
REMARK  126  A    between atoms: _289  and  _292
REMARK  127  A    between atoms: _292  and  _293
REMARK  128  A    between atoms: _295  and  _297
REMARK  129  A    between atoms: _297  and  _298
REMARK  130  A    between atoms: _297  and  _300
REMARK  131  A    between atoms: _300  and  _301
REMARK  132  A    between atoms: _301  and  _302
REMARK  133  A    between atoms: _302  and  _303
REMARK  134  A    between atoms: _313  and  _314
REMARK  135  A    between atoms: _319  and  _321
REMARK  136  A    between atoms: _321  and  _322
REMARK  137  A    between atoms: _321  and  _324
REMARK  138  A    between atoms: _324  and  _325
REMARK                            x       y       z     vdW  Elec       q    Type
REMARK                         _______ _______ _______ _____ _____    ______ ____
ROOT
ATOM      1  C   SER A   2       0.474 -11.779  14.736  0.00  0.00    +0.243 C 
ATOM      2  O   SER A   2       0.085 -10.765  15.312  0.00  0.00    -0.273 OA
ATOM      3  N   ARG A   3      -0.275 -12.442  13.856  0.00  0.00    -0.298 N 
ATOM      4  H   ARG A   3       0.003 -13.404  13.575  0.00  0.00    +0.150 HD
ENDROOT
BRANCH   1   5
ATOM      5  CA  SER A   2       1.863 -12.355  15.008  0.00  0.00    +0.178 C 
BRANCH   5   7
ATOM      6  C   ASN A   1       3.151 -10.279  14.668  0.00  0.00    +0.239 C 
ATOM      7  N   SER A   2       2.823 -11.327  15.429  0.00  0.00    -0.295 N 
ATOM      8  H   SER A   2       3.269 -11.419  16.364  0.00  0.00    +0.150 HD
ATOM      9  O   ASN A   1       2.705 -10.101  13.523  0.00  0.00    -0.274 OA
BRANCH   6  10
ATOM     10  CA  ASN A   1       4.099  -9.252  15.305  0.00  0.00    +0.154 C 
BRANCH  10  11
ATOM     11  N   ASN A   1       4.744  -9.741  16.515  0.00  0.00    -0.238 NA
ATOM     12  H   ASN A   1       5.565 -10.374  16.434  0.00  0.00    +0.142 HD
ENDBRANCH  10  11
BRANCH  10  13
ATOM     13  CB  ASN A   1       5.151  -8.748  14.305  0.00  0.00    +0.111 C 
BRANCH  13  14
ATOM     14  CG  ASN A   1       4.550  -7.937  13.161  0.00  0.00    +0.221 C 
ATOM     15  OD1 ASN A   1       3.756  -7.010  13.365  0.00  0.00    -0.275 OA
ATOM     16  ND2 ASN A   1       4.936  -8.289  11.944  0.00  0.00    -0.329 N 
ATOM     17 HD21 ASN A   1       5.606  -9.075  11.818  0.00  0.00    +0.145 HD
ATOM     18 HD22 ASN A   1       4.570  -7.780  11.115  0.00  0.00    +0.145 HD
ENDBRANCH  13  14
ENDBRANCH  10  13
ENDBRANCH   6  10
ENDBRANCH   5   7
BRANCH   5  19
ATOM     19  CB  SER A   2       1.782 -13.490  16.031  0.00  0.00    +0.166 C 
BRANCH  19  20
ATOM     20  OG  SER A   2       1.198 -13.062  17.253  0.00  0.00    -0.380 OA
ATOM     21  H   SER A   2       1.744 -12.333  17.641  0.00  0.00    +0.211 HD
ENDBRANCH  19  20
ENDBRANCH   5  19
ENDBRANCH   1   5
BRANCH   3  22
ATOM     22  CA  ARG A   3      -1.475 -11.850  13.279  0.00  0.00    +0.137 C 
BRANCH  22  23
ATOM     23  C   ARG A   3      -2.678 -12.774  13.264  0.00  0.00    +0.227 C 
ATOM     24  O   ARG A   3      -2.529 -13.996  13.275  0.00  0.00    -0.286 OA
ENDBRANCH  22  23
BRANCH  22  25
ATOM     25  CB  ARG A   3      -1.186 -11.400  11.833  0.00  0.00    +0.031 C 
BRANCH  25  26
ATOM     26  CG  ARG A   3      -0.098 -10.344  11.713  0.00  0.00    +0.045 C 
BRANCH  26  27
ATOM     27  CD  ARG A   3      -0.640  -8.955  11.988  0.00  0.00    +0.174 C 
BRANCH  27  28
ATOM     28  NE  ARG A   3       0.431  -8.009  12.309  0.00  0.00    -0.265 N 
ATOM     29  HE  ARG A   3       1.355  -8.393  12.593  0.00  0.00    +0.259 HD
ATOM     30  CZ  ARG A   3       0.291  -6.688  12.258  0.00  0.00    +0.342 C 
ATOM     31  NH2 ARG A   3       1.306  -5.907  12.585  0.00  0.00    -0.292 N 
ATOM     32 HH21 ARG A   3       2.210  -6.326  12.881  0.00  0.00    +0.255 HD
ATOM     33 HH22 ARG A   3       1.200  -4.873  12.546  0.00  0.00    +0.255 HD
ATOM     34  NH1 ARG A   3      -0.859  -6.146  11.875  0.00  0.00    -0.292 N 
ATOM     35 HH11 ARG A   3      -0.960  -5.112  11.838  0.00  0.00    +0.255 HD
ATOM     36 HH12 ARG A   3      -1.659  -6.756  11.612  0.00  0.00    +0.255 HD
ENDBRANCH  27  28
ENDBRANCH  26  27
ENDBRANCH  25  26
ENDBRANCH  22  25
ENDBRANCH   3  22
TORSDOF 14
REMARK  Name = ../refined-set-2016/2rke/2rke_pocket.pdb
REMARK  138 active torsions:
REMARK  status: ('A' for Active; 'I' for Inactive)
REMARK    1  A    between atoms: _1  and  _3
REMARK    2  A    between atoms: _3  and  _4
REMARK    3  A    between atoms: _3  and  _6
REMARK    4  A    between atoms: _6  and  _7
REMARK    5  A    between atoms: _10  and  _12
REMARK    6  A    between atoms: _12  and  _13
REMARK    7  A    between atoms: _12  and  _15
REMARK    8  A    between atoms: _18  and  _20
REMARK    9  A    between atoms: _20  and  _21
REMARK   10  A    between atoms: _24  and  _26
REMARK   11  A    between atoms: _26  and  _27
REMARK   12  A    between atoms: _26  and  _29
REMARK   13  A    between atoms: _29  and  _30
REMARK   14  A    between atoms: _30  and  _31
REMARK   15  A    between atoms: _31  and  _32
REMARK   16  A    between atoms: _41  and  _43
REMARK   17  A    between atoms: _43  and  _44
REMARK   18  A    between atoms: _43  and  _46
REMARK   19  A    between atoms: _46  and  _47
REMARK   20  A    between atoms: _50  and  _52
REMARK   21  A    between atoms: _52  and  _53
REMARK   22  A    between atoms: _52  and  _55
REMARK   23  A    between atoms: _55  and  _56
REMARK   24  A    between atoms: _61  and  _62
REMARK   25  A    between atoms: _64  and  _66
REMARK   26  A    between atoms: _66  and  _67
REMARK   27  A    between atoms: _66  and  _69
REMARK   28  A    between atoms: _69  and  _70
REMARK   29  A    between atoms: _70  and  _71
REMARK   30  A    between atoms: _73  and  _75
REMARK   31  A    between atoms: _75  and  _76
REMARK   32  A    between atoms: _75  and  _78
REMARK   33  A    between atoms: _78  and  _79
REMARK   34  A    between atoms: _81  and  _83
REMARK   35  A    between atoms: _83  and  _84
REMARK   36  A    between atoms: _86  and  _88
REMARK   37  A    between atoms: _88  and  _89
REMARK   38  A    between atoms: _88  and  _91
REMARK   39  A    between atoms: _91  and  _92
REMARK   40  A    between atoms: _97  and  _98
REMARK   41  A    between atoms: _100  and  _102
REMARK   42  A    between atoms: _102  and  _103
REMARK   43  A    between atoms: _105  and  _107
REMARK   44  A    between atoms: _107  and  _108
REMARK   45  A    between atoms: _110  and  _112
REMARK   46  A    between atoms: _112  and  _113
REMARK   47  A    between atoms: _112  and  _115
REMARK   48  A    between atoms: _115  and  _116
REMARK   49  A    between atoms: _121  and  _123
REMARK   50  A    between atoms: _123  and  _124
REMARK   51  A    between atoms: _123  and  _126
REMARK   52  A    between atoms: _126  and  _127
REMARK   53  A    between atoms: _129  and  _131
REMARK   54  A    between atoms: _131  and  _132
REMARK   55  A    between atoms: _131  and  _134
REMARK   56  A    between atoms: _134  and  _135
REMARK   57  A    between atoms: _138  and  _140
REMARK   58  A    between atoms: _140  and  _141
REMARK   59  A    between atoms: _140  and  _143
REMARK   60  A    between atoms: _143  and  _144
REMARK   61  A    between atoms: _144  and  _145
REMARK   62  A    between atoms: _145  and  _146
REMARK   63  A    between atoms: _146  and  _147
REMARK   64  A    between atoms: _151  and  _153
REMARK   65  A    between atoms: _153  and  _154
REMARK   66  A    between atoms: _153  and  _156
REMARK   67  A    between atoms: _156  and  _157
REMARK   68  A    between atoms: _157  and  _158
REMARK   69  A    between atoms: _158  and  _159
REMARK   70  A    between atoms: _159  and  _160
REMARK   71  A    between atoms: _164  and  _166
REMARK   72  A    between atoms: _166  and  _167
REMARK   73  A    between atoms: _166  and  _169
REMARK   74  A    between atoms: _171  and  _173
REMARK   75  A    between atoms: _173  and  _174
REMARK   76  A    between atoms: _173  and  _176
REMARK   77  A    between atoms: _176  and  _177
REMARK   78  A    between atoms: _177  and  _178
REMARK   79  A    between atoms: _178  and  _179
REMARK   80  A    between atoms: _188  and  _190
REMARK   81  A    between atoms: _190  and  _191
REMARK   82  A    between atoms: _190  and  _193
REMARK   83  A    between atoms: _193  and  _194
REMARK   84  A    between atoms: _198  and  MN_331
REMARK   85  A    between atoms: _199  and  _201
REMARK   86  A    between atoms: _201  and  _202
REMARK   87  A    between atoms: _201  and  _204
REMARK   88  A    between atoms: _204  and  _205
REMARK   89  A    between atoms: _205  and  _206
REMARK   90  A    between atoms: _206  and  _207
REMARK   91  A    between atoms: _207  and  _208
REMARK   92  A    between atoms: _212  and  _214
REMARK   93  A    between atoms: _214  and  _215
REMARK   94  A    between atoms: _214  and  _217
REMARK   95  A    between atoms: _217  and  _218
REMARK   96  A    between atoms: _218  and  _219
REMARK   97  A    between atoms: _219  and  MN_331
REMARK   98  A    between atoms: _221  and  _223
REMARK   99  A    between atoms: _223  and  _224
REMARK  100  A    between atoms: _223  and  _226
REMARK  101  A    between atoms: _226  and  _227
REMARK  102  A    between atoms: _230  and  _232
REMARK  103  A    between atoms: _232  and  _233
REMARK  104  A    between atoms: _232  and  _235
REMARK  105  A    between atoms: _235  and  _236
REMARK  106  A    between atoms: _236  and  _237
REMARK  107  A    between atoms: _240  and  _242
REMARK  108  A    between atoms: _242  and  _243
REMARK  109  A    between atoms: _242  and  _245
REMARK  110  A    between atoms: _245  and  _246
REMARK  111  A    between atoms: _252  and  _254
REMARK  112  A    between atoms: _254  and  _255
REMARK  113  A    between atoms: _257  and  _259
REMARK  114  A    between atoms: _259  and  _260
REMARK  115  A    between atoms: _259  and  _262
REMARK  116  A    between atoms: _265  and  _267
REMARK  117  A    between atoms: _267  and  _268
REMARK  118  A    between atoms: _267  and  _270
REMARK  119  A    between atoms: _270  and  _271
REMARK  120  A    between atoms: _276  and  _278
REMARK  121  A    between atoms: _278  and  _279
REMARK  122  A    between atoms: _278  and  _281
REMARK  123  A    between atoms: _281  and  _282
REMARK  124  A    between atoms: _287  and  _289
REMARK  125  A    between atoms: _289  and  _290
REMARK  126  A    between atoms: _289  and  _292
REMARK  127  A    between atoms: _292  and  _293
REMARK  128  A    between atoms: _295  and  _297
REMARK  129  A    between atoms: _297  and  _298
REMARK  130  A    between atoms: _297  and  _300
REMARK  131  A    between atoms: _300  and  _301
REMARK  132  A    between atoms: _301  and  _302
REMARK  133  A    between atoms: _302  and  _303
REMARK  134  A    between atoms: _313  and  _314
REMARK  135  A    between atoms: _319  and  _321
REMARK  136  A    between atoms: _321  and  _322
REMARK  137  A    between atoms: _321  and  _324
REMARK  138  A    between atoms: _324  and  _325
REMARK                            x       y       z     vdW  Elec       q    Type
REMARK                         _______ _______ _______ _____ _____    ______ ____
ROOT
ATOM      1  CA  PHE A   2       4.108   4.470   4.236  0.00  0.00    +0.141 C 
ENDROOT
BRANCH   1   3
ATOM      2  C   PRO A   1       6.020   3.693   5.471  0.00  0.00    +0.239 C 
ATOM      3  N   PHE A   2       5.072   4.611   5.314  0.00  0.00    -0.298 N 
ATOM      4  H   PHE A   2       5.020   5.425   5.959  0.00  0.00    +0.150 HD
ATOM      5  O   PRO A   1       6.243   2.809   4.624  0.00  0.00    -0.274 OA
BRANCH   2  10
ATOM      6  N   PRO A   1       6.386   4.803   7.701  0.00  0.00    -0.210 NA
ATOM      7  CD  PRO A   1       5.517   4.251   8.755  0.00  0.00    +0.089 C 
ATOM      8  CG  PRO A   1       6.071   2.874   8.936  0.00  0.00    +0.021 C 
ATOM      9  CB  PRO A   1       6.618   2.454   7.595  0.00  0.00    +0.028 C 
ATOM     10  CA  PRO A   1       6.837   3.747   6.781  0.00  0.00    +0.149 C 
ENDBRANCH   2  10
ENDBRANCH   1   3
BRANCH   1  11
ATOM     11  C   PHE A   2       3.995   5.618   3.240  0.00  0.00    +0.227 C 
ATOM     12  O   PHE A   2       3.230   5.506   2.278  0.00  0.00    -0.286 OA
ENDBRANCH   1  11
BRANCH   1  13
ATOM     13  CB  PHE A   2       2.717   4.114   4.793  0.00  0.00    +0.054 C 
BRANCH  13  14
ATOM     14  CG  PHE A   2       2.729   2.974   5.784  0.00  0.00    -0.020 A 
ATOM     15  CD2 PHE A   2       2.347   3.185   7.112  0.00  0.00    -0.004 A 
ATOM     16  CE2 PHE A   2       2.359   2.135   8.034  0.00  0.00    -0.000 A 
ATOM     17  CZ  PHE A   2       2.749   0.859   7.622  0.00  0.00    -0.000 A 
ATOM     18  CE1 PHE A   2       3.121   0.639   6.306  0.00  0.00    -0.000 A 
ATOM     19  CD1 PHE A   2       3.104   1.691   5.388  0.00  0.00    -0.004 A 
ENDBRANCH  13  14
ENDBRANCH   1  13
TORSDOF 5
REMARK  Name = ../refined-set-2016/2rke/2rke_pocket.pdb
REMARK  138 active torsions:
REMARK  status: ('A' for Active; 'I' for Inactive)
REMARK    1  A    between atoms: _1  and  _3
REMARK    2  A    between atoms: _3  and  _4
REMARK    3  A    between atoms: _3  and  _6
REMARK    4  A    between atoms: _6  and  _7
REMARK    5  A    between atoms: _10  and  _12
REMARK    6  A    between atoms: _12  and  _13
REMARK    7  A    between atoms: _12  and  _15
REMARK    8  A    between atoms: _18  and  _20
REMARK    9  A    between atoms: _20  and  _21
REMARK   10  A    between atoms: _24  and  _26
REMARK   11  A    between atoms: _26  and  _27
REMARK   12  A    between atoms: _26  and  _29
REMARK   13  A    between atoms: _29  and  _30
REMARK   14  A    between atoms: _30  and  _31
REMARK   15  A    between atoms: _31  and  _32
REMARK   16  A    between atoms: _41  and  _43
REMARK   17  A    between atoms: _43  and  _44
REMARK   18  A    between atoms: _43  and  _46
REMARK   19  A    between atoms: _46  and  _47
REMARK   20  A    between atoms: _50  and  _52
REMARK   21  A    between atoms: _52  and  _53
REMARK   22  A    between atoms: _52  and  _55
REMARK   23  A    between atoms: _55  and  _56
REMARK   24  A    between atoms: _61  and  _62
REMARK   25  A    between atoms: _64  and  _66
REMARK   26  A    between atoms: _66  and  _67
REMARK   27  A    between atoms: _66  and  _69
REMARK   28  A    between atoms: _69  and  _70
REMARK   29  A    between atoms: _70  and  _71
REMARK   30  A    between atoms: _73  and  _75
REMARK   31  A    between atoms: _75  and  _76
REMARK   32  A    between atoms: _75  and  _78
REMARK   33  A    between atoms: _78  and  _79
REMARK   34  A    between atoms: _81  and  _83
REMARK   35  A    between atoms: _83  and  _84
REMARK   36  A    between atoms: _86  and  _88
REMARK   37  A    between atoms: _88  and  _89
REMARK   38  A    between atoms: _88  and  _91
REMARK   39  A    between atoms: _91  and  _92
REMARK   40  A    between atoms: _97  and  _98
REMARK   41  A    between atoms: _100  and  _102
REMARK   42  A    between atoms: _102  and  _103
REMARK   43  A    between atoms: _105  and  _107
REMARK   44  A    between atoms: _107  and  _108
REMARK   45  A    between atoms: _110  and  _112
REMARK   46  A    between atoms: _112  and  _113
REMARK   47  A    between atoms: _112  and  _115
REMARK   48  A    between atoms: _115  and  _116
REMARK   49  A    between atoms: _121  and  _123
REMARK   50  A    between atoms: _123  and  _124
REMARK   51  A    between atoms: _123  and  _126
REMARK   52  A    between atoms: _126  and  _127
REMARK   53  A    between atoms: _129  and  _131
REMARK   54  A    between atoms: _131  and  _132
REMARK   55  A    between atoms: _131  and  _134
REMARK   56  A    between atoms: _134  and  _135
REMARK   57  A    between atoms: _138  and  _140
REMARK   58  A    between atoms: _140  and  _141
REMARK   59  A    between atoms: _140  and  _143
REMARK   60  A    between atoms: _143  and  _144
REMARK   61  A    between atoms: _144  and  _145
REMARK   62  A    between atoms: _145  and  _146
REMARK   63  A    between atoms: _146  and  _147
REMARK   64  A    between atoms: _151  and  _153
REMARK   65  A    between atoms: _153  and  _154
REMARK   66  A    between atoms: _153  and  _156
REMARK   67  A    between atoms: _156  and  _157
REMARK   68  A    between atoms: _157  and  _158
REMARK   69  A    between atoms: _158  and  _159
REMARK   70  A    between atoms: _159  and  _160
REMARK   71  A    between atoms: _164  and  _166
REMARK   72  A    between atoms: _166  and  _167
REMARK   73  A    between atoms: _166  and  _169
REMARK   74  A    between atoms: _171  and  _173
REMARK   75  A    between atoms: _173  and  _174
REMARK   76  A    between atoms: _173  and  _176
REMARK   77  A    between atoms: _176  and  _177
REMARK   78  A    between atoms: _177  and  _178
REMARK   79  A    between atoms: _178  and  _179
REMARK   80  A    between atoms: _188  and  _190
REMARK   81  A    between atoms: _190  and  _191
REMARK   82  A    between atoms: _190  and  _193
REMARK   83  A    between atoms: _193  and  _194
REMARK   84  A    between atoms: _198  and  MN_331
REMARK   85  A    between atoms: _199  and  _201
REMARK   86  A    between atoms: _201  and  _202
REMARK   87  A    between atoms: _201  and  _204
REMARK   88  A    between atoms: _204  and  _205
REMARK   89  A    between atoms: _205  and  _206
REMARK   90  A    between atoms: _206  and  _207
REMARK   91  A    between atoms: _207  and  _208
REMARK   92  A    between atoms: _212  and  _214
REMARK   93  A    between atoms: _214  and  _215
REMARK   94  A    between atoms: _214  and  _217
REMARK   95  A    between atoms: _217  and  _218
REMARK   96  A    between atoms: _218  and  _219
REMARK   97  A    between atoms: _219  and  MN_331
REMARK   98  A    between atoms: _221  and  _223
REMARK   99  A    between atoms: _223  and  _224
REMARK  100  A    between atoms: _223  and  _226
REMARK  101  A    between atoms: _226  and  _227
REMARK  102  A    between atoms: _230  and  _232
REMARK  103  A    between atoms: _232  and  _233
REMARK  104  A    between atoms: _232  and  _235
REMARK  105  A    between atoms: _235  and  _236
REMARK  106  A    between atoms: _236  and  _237
REMARK  107  A    between atoms: _240  and  _242
REMARK  108  A    between atoms: _242  and  _243
REMARK  109  A    between atoms: _242  and  _245
REMARK  110  A    between atoms: _245  and  _246
REMARK  111  A    between atoms: _252  and  _254
REMARK  112  A    between atoms: _254  and  _255
REMARK  113  A    between atoms: _257  and  _259
REMARK  114  A    between atoms: _259  and  _260
REMARK  115  A    between atoms: _259  and  _262
REMARK  116  A    between atoms: _265  and  _267
REMARK  117  A    between atoms: _267  and  _268
REMARK  118  A    between atoms: _267  and  _270
REMARK  119  A    between atoms: _270  and  _271
REMARK  120  A    between atoms: _276  and  _278
REMARK  121  A    between atoms: _278  and  _279
REMARK  122  A    between atoms: _278  and  _281
REMARK  123  A    between atoms: _281  and  _282
REMARK  124  A    between atoms: _287  and  _289
REMARK  125  A    between atoms: _289  and  _290
REMARK  126  A    between atoms: _289  and  _292
REMARK  127  A    between atoms: _292  and  _293
REMARK  128  A    between atoms: _295  and  _297
REMARK  129  A    between atoms: _297  and  _298
REMARK  130  A    between atoms: _297  and  _300
REMARK  131  A    between atoms: _300  and  _301
REMARK  132  A    between atoms: _301  and  _302
REMARK  133  A    between atoms: _302  and  _303
REMARK  134  A    between atoms: _313  and  _314
REMARK  135  A    between atoms: _319  and  _321
REMARK  136  A    between atoms: _321  and  _322
REMARK  137  A    between atoms: _321  and  _324
REMARK  138  A    between atoms: _324  and  _325
REMARK                            x       y       z     vdW  Elec       q    Type
REMARK                         _______ _______ _______ _____ _____    ______ ____
ROOT
ATOM      1  O   HOH     1       4.986  -2.927   2.725  0.00  0.00    +0.000 OA
ENDROOT
TORSDOF 0
REMARK  Name = ../refined-set-2016/2rke/2rke_pocket.pdb
REMARK  138 active torsions:
REMARK  status: ('A' for Active; 'I' for Inactive)
REMARK    1  A    between atoms: _1  and  _3
REMARK    2  A    between atoms: _3  and  _4
REMARK    3  A    between atoms: _3  and  _6
REMARK    4  A    between atoms: _6  and  _7
REMARK    5  A    between atoms: _10  and  _12
REMARK    6  A    between atoms: _12  and  _13
REMARK    7  A    between atoms: _12  and  _15
REMARK    8  A    between atoms: _18  and  _20
REMARK    9  A    between atoms: _20  and  _21
REMARK   10  A    between atoms: _24  and  _26
REMARK   11  A    between atoms: _26  and  _27
REMARK   12  A    between atoms: _26  and  _29
REMARK   13  A    between atoms: _29  and  _30
REMARK   14  A    between atoms: _30  and  _31
REMARK   15  A    between atoms: _31  and  _32
REMARK   16  A    between atoms: _41  and  _43
REMARK   17  A    between atoms: _43  and  _44
REMARK   18  A    between atoms: _43  and  _46
REMARK   19  A    between atoms: _46  and  _47
REMARK   20  A    between atoms: _50  and  _52
REMARK   21  A    between atoms: _52  and  _53
REMARK   22  A    between atoms: _52  and  _55
REMARK   23  A    between atoms: _55  and  _56
REMARK   24  A    between atoms: _61  and  _62
REMARK   25  A    between atoms: _64  and  _66
REMARK   26  A    between atoms: _66  and  _67
REMARK   27  A    between atoms: _66  and  _69
REMARK   28  A    between atoms: _69  and  _70
REMARK   29  A    between atoms: _70  and  _71
REMARK   30  A    between atoms: _73  and  _75
REMARK   31  A    between atoms: _75  and  _76
REMARK   32  A    between atoms: _75  and  _78
REMARK   33  A    between atoms: _78  and  _79
REMARK   34  A    between atoms: _81  and  _83
REMARK   35  A    between atoms: _83  and  _84
REMARK   36  A    between atoms: _86  and  _88
REMARK   37  A    between atoms: _88  and  _89
REMARK   38  A    between atoms: _88  and  _91
REMARK   39  A    between atoms: _91  and  _92
REMARK   40  A    between atoms: _97  and  _98
REMARK   41  A    between atoms: _100  and  _102
REMARK   42  A    between atoms: _102  and  _103
REMARK   43  A    between atoms: _105  and  _107
REMARK   44  A    between atoms: _107  and  _108
REMARK   45  A    between atoms: _110  and  _112
REMARK   46  A    between atoms: _112  and  _113
REMARK   47  A    between atoms: _112  and  _115
REMARK   48  A    between atoms: _115  and  _116
REMARK   49  A    between atoms: _121  and  _123
REMARK   50  A    between atoms: _123  and  _124
REMARK   51  A    between atoms: _123  and  _126
REMARK   52  A    between atoms: _126  and  _127
REMARK   53  A    between atoms: _129  and  _131
REMARK   54  A    between atoms: _131  and  _132
REMARK   55  A    between atoms: _131  and  _134
REMARK   56  A    between atoms: _134  and  _135
REMARK   57  A    between atoms: _138  and  _140
REMARK   58  A    between atoms: _140  and  _141
REMARK   59  A    between atoms: _140  and  _143
REMARK   60  A    between atoms: _143  and  _144
REMARK   61  A    between atoms: _144  and  _145
REMARK   62  A    between atoms: _145  and  _146
REMARK   63  A    between atoms: _146  and  _147
REMARK   64  A    between atoms: _151  and  _153
REMARK   65  A    between atoms: _153  and  _154
REMARK   66  A    between atoms: _153  and  _156
REMARK   67  A    between atoms: _156  and  _157
REMARK   68  A    between atoms: _157  and  _158
REMARK   69  A    between atoms: _158  and  _159
REMARK   70  A    between atoms: _159  and  _160
REMARK   71  A    between atoms: _164  and  _166
REMARK   72  A    between atoms: _166  and  _167
REMARK   73  A    between atoms: _166  and  _169
REMARK   74  A    between atoms: _171  and  _173
REMARK   75  A    between atoms: _173  and  _174
REMARK   76  A    between atoms: _173  and  _176
REMARK   77  A    between atoms: _176  and  _177
REMARK   78  A    between atoms: _177  and  _178
REMARK   79  A    between atoms: _178  and  _179
REMARK   80  A    between atoms: _188  and  _190
REMARK   81  A    between atoms: _190  and  _191
REMARK   82  A    between atoms: _190  and  _193
REMARK   83  A    between atoms: _193  and  _194
REMARK   84  A    between atoms: _198  and  MN_331
REMARK   85  A    between atoms: _199  and  _201
REMARK   86  A    between atoms: _201  and  _202
REMARK   87  A    between atoms: _201  and  _204
REMARK   88  A    between atoms: _204  and  _205
REMARK   89  A    between atoms: _205  and  _206
REMARK   90  A    between atoms: _206  and  _207
REMARK   91  A    between atoms: _207  and  _208
REMARK   92  A    between atoms: _212  and  _214
REMARK   93  A    between atoms: _214  and  _215
REMARK   94  A    between atoms: _214  and  _217
REMARK   95  A    between atoms: _217  and  _218
REMARK   96  A    between atoms: _218  and  _219
REMARK   97  A    between atoms: _219  and  MN_331
REMARK   98  A    between atoms: _221  and  _223
REMARK   99  A    between atoms: _223  and  _224
REMARK  100  A    between atoms: _223  and  _226
REMARK  101  A    between atoms: _226  and  _227
REMARK  102  A    between atoms: _230  and  _232
REMARK  103  A    between atoms: _232  and  _233
REMARK  104  A    between atoms: _232  and  _235
REMARK  105  A    between atoms: _235  and  _236
REMARK  106  A    between atoms: _236  and  _237
REMARK  107  A    between atoms: _240  and  _242
REMARK  108  A    between atoms: _242  and  _243
REMARK  109  A    between atoms: _242  and  _245
REMARK  110  A    between atoms: _245  and  _246
REMARK  111  A    between atoms: _252  and  _254
REMARK  112  A    between atoms: _254  and  _255
REMARK  113  A    between atoms: _257  and  _259
REMARK  114  A    between atoms: _259  and  _260
REMARK  115  A    between atoms: _259  and  _262
REMARK  116  A    between atoms: _265  and  _267
REMARK  117  A    between atoms: _267  and  _268
REMARK  118  A    between atoms: _267  and  _270
REMARK  119  A    between atoms: _270  and  _271
REMARK  120  A    between atoms: _276  and  _278
REMARK  121  A    between atoms: _278  and  _279
REMARK  122  A    between atoms: _278  and  _281
REMARK  123  A    between atoms: _281  and  _282
REMARK  124  A    between atoms: _287  and  _289
REMARK  125  A    between atoms: _289  and  _290
REMARK  126  A    between atoms: _289  and  _292
REMARK  127  A    between atoms: _292  and  _293
REMARK  128  A    between atoms: _295  and  _297
REMARK  129  A    between atoms: _297  and  _298
REMARK  130  A    between atoms: _297  and  _300
REMARK  131  A    between atoms: _300  and  _301
REMARK  132  A    between atoms: _301  and  _302
REMARK  133  A    between atoms: _302  and  _303
REMARK  134  A    between atoms: _313  and  _314
REMARK  135  A    between atoms: _319  and  _321
REMARK  136  A    between atoms: _321  and  _322
REMARK  137  A    between atoms: _321  and  _324
REMARK  138  A    between atoms: _324  and  _325
REMARK                            x       y       z     vdW  Elec       q    Type
REMARK                         _______ _______ _______ _____ _____    ______ ____
ROOT
ATOM      1  O   HOH     1       1.698 -12.786   7.059  0.00  0.00    +0.000 OA
ENDROOT
TORSDOF 0
REMARK  Name = ../refined-set-2016/2rke/2rke_pocket.pdb
REMARK  138 active torsions:
REMARK  status: ('A' for Active; 'I' for Inactive)
REMARK    1  A    between atoms: _1  and  _3
REMARK    2  A    between atoms: _3  and  _4
REMARK    3  A    between atoms: _3  and  _6
REMARK    4  A    between atoms: _6  and  _7
REMARK    5  A    between atoms: _10  and  _12
REMARK    6  A    between atoms: _12  and  _13
REMARK    7  A    between atoms: _12  and  _15
REMARK    8  A    between atoms: _18  and  _20
REMARK    9  A    between atoms: _20  and  _21
REMARK   10  A    between atoms: _24  and  _26
REMARK   11  A    between atoms: _26  and  _27
REMARK   12  A    between atoms: _26  and  _29
REMARK   13  A    between atoms: _29  and  _30
REMARK   14  A    between atoms: _30  and  _31
REMARK   15  A    between atoms: _31  and  _32
REMARK   16  A    between atoms: _41  and  _43
REMARK   17  A    between atoms: _43  and  _44
REMARK   18  A    between atoms: _43  and  _46
REMARK   19  A    between atoms: _46  and  _47
REMARK   20  A    between atoms: _50  and  _52
REMARK   21  A    between atoms: _52  and  _53
REMARK   22  A    between atoms: _52  and  _55
REMARK   23  A    between atoms: _55  and  _56
REMARK   24  A    between atoms: _61  and  _62
REMARK   25  A    between atoms: _64  and  _66
REMARK   26  A    between atoms: _66  and  _67
REMARK   27  A    between atoms: _66  and  _69
REMARK   28  A    between atoms: _69  and  _70
REMARK   29  A    between atoms: _70  and  _71
REMARK   30  A    between atoms: _73  and  _75
REMARK   31  A    between atoms: _75  and  _76
REMARK   32  A    between atoms: _75  and  _78
REMARK   33  A    between atoms: _78  and  _79
REMARK   34  A    between atoms: _81  and  _83
REMARK   35  A    between atoms: _83  and  _84
REMARK   36  A    between atoms: _86  and  _88
REMARK   37  A    between atoms: _88  and  _89
REMARK   38  A    between atoms: _88  and  _91
REMARK   39  A    between atoms: _91  and  _92
REMARK   40  A    between atoms: _97  and  _98
REMARK   41  A    between atoms: _100  and  _102
REMARK   42  A    between atoms: _102  and  _103
REMARK   43  A    between atoms: _105  and  _107
REMARK   44  A    between atoms: _107  and  _108
REMARK   45  A    between atoms: _110  and  _112
REMARK   46  A    between atoms: _112  and  _113
REMARK   47  A    between atoms: _112  and  _115
REMARK   48  A    between atoms: _115  and  _116
REMARK   49  A    between atoms: _121  and  _123
REMARK   50  A    between atoms: _123  and  _124
REMARK   51  A    between atoms: _123  and  _126
REMARK   52  A    between atoms: _126  and  _127
REMARK   53  A    between atoms: _129  and  _131
REMARK   54  A    between atoms: _131  and  _132
REMARK   55  A    between atoms: _131  and  _134
REMARK   56  A    between atoms: _134  and  _135
REMARK   57  A    between atoms: _138  and  _140
REMARK   58  A    between atoms: _140  and  _141
REMARK   59  A    between atoms: _140  and  _143
REMARK   60  A    between atoms: _143  and  _144
REMARK   61  A    between atoms: _144  and  _145
REMARK   62  A    between atoms: _145  and  _146
REMARK   63  A    between atoms: _146  and  _147
REMARK   64  A    between atoms: _151  and  _153
REMARK   65  A    between atoms: _153  and  _154
REMARK   66  A    between atoms: _153  and  _156
REMARK   67  A    between atoms: _156  and  _157
REMARK   68  A    between atoms: _157  and  _158
REMARK   69  A    between atoms: _158  and  _159
REMARK   70  A    between atoms: _159  and  _160
REMARK   71  A    between atoms: _164  and  _166
REMARK   72  A    between atoms: _166  and  _167
REMARK   73  A    between atoms: _166  and  _169
REMARK   74  A    between atoms: _171  and  _173
REMARK   75  A    between atoms: _173  and  _174
REMARK   76  A    between atoms: _173  and  _176
REMARK   77  A    between atoms: _176  and  _177
REMARK   78  A    between atoms: _177  and  _178
REMARK   79  A    between atoms: _178  and  _179
REMARK   80  A    between atoms: _188  and  _190
REMARK   81  A    between atoms: _190  and  _191
REMARK   82  A    between atoms: _190  and  _193
REMARK   83  A    between atoms: _193  and  _194
REMARK   84  A    between atoms: _198  and  MN_331
REMARK   85  A    between atoms: _199  and  _201
REMARK   86  A    between atoms: _201  and  _202
REMARK   87  A    between atoms: _201  and  _204
REMARK   88  A    between atoms: _204  and  _205
REMARK   89  A    between atoms: _205  and  _206
REMARK   90  A    between atoms: _206  and  _207
REMARK   91  A    between atoms: _207  and  _208
REMARK   92  A    between atoms: _212  and  _214
REMARK   93  A    between atoms: _214  and  _215
REMARK   94  A    between atoms: _214  and  _217
REMARK   95  A    between atoms: _217  and  _218
REMARK   96  A    between atoms: _218  and  _219
REMARK   97  A    between atoms: _219  and  MN_331
REMARK   98  A    between atoms: _221  and  _223
REMARK   99  A    between atoms: _223  and  _224
REMARK  100  A    between atoms: _223  and  _226
REMARK  101  A    between atoms: _226  and  _227
REMARK  102  A    between atoms: _230  and  _232
REMARK  103  A    between atoms: _232  and  _233
REMARK  104  A    between atoms: _232  and  _235
REMARK  105  A    between atoms: _235  and  _236
REMARK  106  A    between atoms: _236  and  _237
REMARK  107  A    between atoms: _240  and  _242
REMARK  108  A    between atoms: _242  and  _243
REMARK  109  A    between atoms: _242  and  _245
REMARK  110  A    between atoms: _245  and  _246
REMARK  111  A    between atoms: _252  and  _254
REMARK  112  A    between atoms: _254  and  _255
REMARK  113  A    between atoms: _257  and  _259
REMARK  114  A    between atoms: _259  and  _260
REMARK  115  A    between atoms: _259  and  _262
REMARK  116  A    between atoms: _265  and  _267
REMARK  117  A    between atoms: _267  and  _268
REMARK  118  A    between atoms: _267  and  _270
REMARK  119  A    between atoms: _270  and  _271
REMARK  120  A    between atoms: _276  and  _278
REMARK  121  A    between atoms: _278  and  _279
REMARK  122  A    between atoms: _278  and  _281
REMARK  123  A    between atoms: _281  and  _282
REMARK  124  A    between atoms: _287  and  _289
REMARK  125  A    between atoms: _289  and  _290
REMARK  126  A    between atoms: _289  and  _292
REMARK  127  A    between atoms: _292  and  _293
REMARK  128  A    between atoms: _295  and  _297
REMARK  129  A    between atoms: _297  and  _298
REMARK  130  A    between atoms: _297  and  _300
REMARK  131  A    between atoms: _300  and  _301
REMARK  132  A    between atoms: _301  and  _302
REMARK  133  A    between atoms: _302  and  _303
REMARK  134  A    between atoms: _313  and  _314
REMARK  135  A    between atoms: _319  and  _321
REMARK  136  A    between atoms: _321  and  _322
REMARK  137  A    between atoms: _321  and  _324
REMARK  138  A    between atoms: _324  and  _325
REMARK                            x       y       z     vdW  Elec       q    Type
REMARK                         _______ _______ _______ _____ _____    ______ ____
ROOT
ATOM      1  O   HOH     1      -6.710  -4.557   8.466  0.00  0.00    +0.000 OA
ENDROOT
TORSDOF 0
REMARK  Name = ../refined-set-2016/2rke/2rke_pocket.pdb
REMARK  138 active torsions:
REMARK  status: ('A' for Active; 'I' for Inactive)
REMARK    1  A    between atoms: _1  and  _3
REMARK    2  A    between atoms: _3  and  _4
REMARK    3  A    between atoms: _3  and  _6
REMARK    4  A    between atoms: _6  and  _7
REMARK    5  A    between atoms: _10  and  _12
REMARK    6  A    between atoms: _12  and  _13
REMARK    7  A    between atoms: _12  and  _15
REMARK    8  A    between atoms: _18  and  _20
REMARK    9  A    between atoms: _20  and  _21
REMARK   10  A    between atoms: _24  and  _26
REMARK   11  A    between atoms: _26  and  _27
REMARK   12  A    between atoms: _26  and  _29
REMARK   13  A    between atoms: _29  and  _30
REMARK   14  A    between atoms: _30  and  _31
REMARK   15  A    between atoms: _31  and  _32
REMARK   16  A    between atoms: _41  and  _43
REMARK   17  A    between atoms: _43  and  _44
REMARK   18  A    between atoms: _43  and  _46
REMARK   19  A    between atoms: _46  and  _47
REMARK   20  A    between atoms: _50  and  _52
REMARK   21  A    between atoms: _52  and  _53
REMARK   22  A    between atoms: _52  and  _55
REMARK   23  A    between atoms: _55  and  _56
REMARK   24  A    between atoms: _61  and  _62
REMARK   25  A    between atoms: _64  and  _66
REMARK   26  A    between atoms: _66  and  _67
REMARK   27  A    between atoms: _66  and  _69
REMARK   28  A    between atoms: _69  and  _70
REMARK   29  A    between atoms: _70  and  _71
REMARK   30  A    between atoms: _73  and  _75
REMARK   31  A    between atoms: _75  and  _76
REMARK   32  A    between atoms: _75  and  _78
REMARK   33  A    between atoms: _78  and  _79
REMARK   34  A    between atoms: _81  and  _83
REMARK   35  A    between atoms: _83  and  _84
REMARK   36  A    between atoms: _86  and  _88
REMARK   37  A    between atoms: _88  and  _89
REMARK   38  A    between atoms: _88  and  _91
REMARK   39  A    between atoms: _91  and  _92
REMARK   40  A    between atoms: _97  and  _98
REMARK   41  A    between atoms: _100  and  _102
REMARK   42  A    between atoms: _102  and  _103
REMARK   43  A    between atoms: _105  and  _107
REMARK   44  A    between atoms: _107  and  _108
REMARK   45  A    between atoms: _110  and  _112
REMARK   46  A    between atoms: _112  and  _113
REMARK   47  A    between atoms: _112  and  _115
REMARK   48  A    between atoms: _115  and  _116
REMARK   49  A    between atoms: _121  and  _123
REMARK   50  A    between atoms: _123  and  _124
REMARK   51  A    between atoms: _123  and  _126
REMARK   52  A    between atoms: _126  and  _127
REMARK   53  A    between atoms: _129  and  _131
REMARK   54  A    between atoms: _131  and  _132
REMARK   55  A    between atoms: _131  and  _134
REMARK   56  A    between atoms: _134  and  _135
REMARK   57  A    between atoms: _138  and  _140
REMARK   58  A    between atoms: _140  and  _141
REMARK   59  A    between atoms: _140  and  _143
REMARK   60  A    between atoms: _143  and  _144
REMARK   61  A    between atoms: _144  and  _145
REMARK   62  A    between atoms: _145  and  _146
REMARK   63  A    between atoms: _146  and  _147
REMARK   64  A    between atoms: _151  and  _153
REMARK   65  A    between atoms: _153  and  _154
REMARK   66  A    between atoms: _153  and  _156
REMARK   67  A    between atoms: _156  and  _157
REMARK   68  A    between atoms: _157  and  _158
REMARK   69  A    between atoms: _158  and  _159
REMARK   70  A    between atoms: _159  and  _160
REMARK   71  A    between atoms: _164  and  _166
REMARK   72  A    between atoms: _166  and  _167
REMARK   73  A    between atoms: _166  and  _169
REMARK   74  A    between atoms: _171  and  _173
REMARK   75  A    between atoms: _173  and  _174
REMARK   76  A    between atoms: _173  and  _176
REMARK   77  A    between atoms: _176  and  _177
REMARK   78  A    between atoms: _177  and  _178
REMARK   79  A    between atoms: _178  and  _179
REMARK   80  A    between atoms: _188  and  _190
REMARK   81  A    between atoms: _190  and  _191
REMARK   82  A    between atoms: _190  and  _193
REMARK   83  A    between atoms: _193  and  _194
REMARK   84  A    between atoms: _198  and  MN_331
REMARK   85  A    between atoms: _199  and  _201
REMARK   86  A    between atoms: _201  and  _202
REMARK   87  A    between atoms: _201  and  _204
REMARK   88  A    between atoms: _204  and  _205
REMARK   89  A    between atoms: _205  and  _206
REMARK   90  A    between atoms: _206  and  _207
REMARK   91  A    between atoms: _207  and  _208
REMARK   92  A    between atoms: _212  and  _214
REMARK   93  A    between atoms: _214  and  _215
REMARK   94  A    between atoms: _214  and  _217
REMARK   95  A    between atoms: _217  and  _218
REMARK   96  A    between atoms: _218  and  _219
REMARK   97  A    between atoms: _219  and  MN_331
REMARK   98  A    between atoms: _221  and  _223
REMARK   99  A    between atoms: _223  and  _224
REMARK  100  A    between atoms: _223  and  _226
REMARK  101  A    between atoms: _226  and  _227
REMARK  102  A    between atoms: _230  and  _232
REMARK  103  A    between atoms: _232  and  _233
REMARK  104  A    between atoms: _232  and  _235
REMARK  105  A    between atoms: _235  and  _236
REMARK  106  A    between atoms: _236  and  _237
REMARK  107  A    between atoms: _240  and  _242
REMARK  108  A    between atoms: _242  and  _243
REMARK  109  A    between atoms: _242  and  _245
REMARK  110  A    between atoms: _245  and  _246
REMARK  111  A    between atoms: _252  and  _254
REMARK  112  A    between atoms: _254  and  _255
REMARK  113  A    between atoms: _257  and  _259
REMARK  114  A    between atoms: _259  and  _260
REMARK  115  A    between atoms: _259  and  _262
REMARK  116  A    between atoms: _265  and  _267
REMARK  117  A    between atoms: _267  and  _268
REMARK  118  A    between atoms: _267  and  _270
REMARK  119  A    between atoms: _270  and  _271
REMARK  120  A    between atoms: _276  and  _278
REMARK  121  A    between atoms: _278  and  _279
REMARK  122  A    between atoms: _278  and  _281
REMARK  123  A    between atoms: _281  and  _282
REMARK  124  A    between atoms: _287  and  _289
REMARK  125  A    between atoms: _289  and  _290
REMARK  126  A    between atoms: _289  and  _292
REMARK  127  A    between atoms: _292  and  _293
REMARK  128  A    between atoms: _295  and  _297
REMARK  129  A    between atoms: _297  and  _298
REMARK  130  A    between atoms: _297  and  _300
REMARK  131  A    between atoms: _300  and  _301
REMARK  132  A    between atoms: _301  and  _302
REMARK  133  A    between atoms: _302  and  _303
REMARK  134  A    between atoms: _313  and  _314
REMARK  135  A    between atoms: _319  and  _321
REMARK  136  A    between atoms: _321  and  _322
REMARK  137  A    between atoms: _321  and  _324
REMARK  138  A    between atoms: _324  and  _325
REMARK                            x       y       z     vdW  Elec       q    Type
REMARK                         _______ _______ _______ _____ _____    ______ ____
ROOT
ATOM      1  O   HOH     1      10.257 -10.467   6.740  0.00  0.00    +0.000 OA
ENDROOT
TORSDOF 0
REMARK  Name = ../refined-set-2016/2rke/2rke_pocket.pdb
REMARK  138 active torsions:
REMARK  status: ('A' for Active; 'I' for Inactive)
REMARK    1  A    between atoms: _1  and  _3
REMARK    2  A    between atoms: _3  and  _4
REMARK    3  A    between atoms: _3  and  _6
REMARK    4  A    between atoms: _6  and  _7
REMARK    5  A    between atoms: _10  and  _12
REMARK    6  A    between atoms: _12  and  _13
REMARK    7  A    between atoms: _12  and  _15
REMARK    8  A    between atoms: _18  and  _20
REMARK    9  A    between atoms: _20  and  _21
REMARK   10  A    between atoms: _24  and  _26
REMARK   11  A    between atoms: _26  and  _27
REMARK   12  A    between atoms: _26  and  _29
REMARK   13  A    between atoms: _29  and  _30
REMARK   14  A    between atoms: _30  and  _31
REMARK   15  A    between atoms: _31  and  _32
REMARK   16  A    between atoms: _41  and  _43
REMARK   17  A    between atoms: _43  and  _44
REMARK   18  A    between atoms: _43  and  _46
REMARK   19  A    between atoms: _46  and  _47
REMARK   20  A    between atoms: _50  and  _52
REMARK   21  A    between atoms: _52  and  _53
REMARK   22  A    between atoms: _52  and  _55
REMARK   23  A    between atoms: _55  and  _56
REMARK   24  A    between atoms: _61  and  _62
REMARK   25  A    between atoms: _64  and  _66
REMARK   26  A    between atoms: _66  and  _67
REMARK   27  A    between atoms: _66  and  _69
REMARK   28  A    between atoms: _69  and  _70
REMARK   29  A    between atoms: _70  and  _71
REMARK   30  A    between atoms: _73  and  _75
REMARK   31  A    between atoms: _75  and  _76
REMARK   32  A    between atoms: _75  and  _78
REMARK   33  A    between atoms: _78  and  _79
REMARK   34  A    between atoms: _81  and  _83
REMARK   35  A    between atoms: _83  and  _84
REMARK   36  A    between atoms: _86  and  _88
REMARK   37  A    between atoms: _88  and  _89
REMARK   38  A    between atoms: _88  and  _91
REMARK   39  A    between atoms: _91  and  _92
REMARK   40  A    between atoms: _97  and  _98
REMARK   41  A    between atoms: _100  and  _102
REMARK   42  A    between atoms: _102  and  _103
REMARK   43  A    between atoms: _105  and  _107
REMARK   44  A    between atoms: _107  and  _108
REMARK   45  A    between atoms: _110  and  _112
REMARK   46  A    between atoms: _112  and  _113
REMARK   47  A    between atoms: _112  and  _115
REMARK   48  A    between atoms: _115  and  _116
REMARK   49  A    between atoms: _121  and  _123
REMARK   50  A    between atoms: _123  and  _124
REMARK   51  A    between atoms: _123  and  _126
REMARK   52  A    between atoms: _126  and  _127
REMARK   53  A    between atoms: _129  and  _131
REMARK   54  A    between atoms: _131  and  _132
REMARK   55  A    between atoms: _131  and  _134
REMARK   56  A    between atoms: _134  and  _135
REMARK   57  A    between atoms: _138  and  _140
REMARK   58  A    between atoms: _140  and  _141
REMARK   59  A    between atoms: _140  and  _143
REMARK   60  A    between atoms: _143  and  _144
REMARK   61  A    between atoms: _144  and  _145
REMARK   62  A    between atoms: _145  and  _146
REMARK   63  A    between atoms: _146  and  _147
REMARK   64  A    between atoms: _151  and  _153
REMARK   65  A    between atoms: _153  and  _154
REMARK   66  A    between atoms: _153  and  _156
REMARK   67  A    between atoms: _156  and  _157
REMARK   68  A    between atoms: _157  and  _158
REMARK   69  A    between atoms: _158  and  _159
REMARK   70  A    between atoms: _159  and  _160
REMARK   71  A    between atoms: _164  and  _166
REMARK   72  A    between atoms: _166  and  _167
REMARK   73  A    between atoms: _166  and  _169
REMARK   74  A    between atoms: _171  and  _173
REMARK   75  A    between atoms: _173  and  _174
REMARK   76  A    between atoms: _173  and  _176
REMARK   77  A    between atoms: _176  and  _177
REMARK   78  A    between atoms: _177  and  _178
REMARK   79  A    between atoms: _178  and  _179
REMARK   80  A    between atoms: _188  and  _190
REMARK   81  A    between atoms: _190  and  _191
REMARK   82  A    between atoms: _190  and  _193
REMARK   83  A    between atoms: _193  and  _194
REMARK   84  A    between atoms: _198  and  MN_331
REMARK   85  A    between atoms: _199  and  _201
REMARK   86  A    between atoms: _201  and  _202
REMARK   87  A    between atoms: _201  and  _204
REMARK   88  A    between atoms: _204  and  _205
REMARK   89  A    between atoms: _205  and  _206
REMARK   90  A    between atoms: _206  and  _207
REMARK   91  A    between atoms: _207  and  _208
REMARK   92  A    between atoms: _212  and  _214
REMARK   93  A    between atoms: _214  and  _215
REMARK   94  A    between atoms: _214  and  _217
REMARK   95  A    between atoms: _217  and  _218
REMARK   96  A    between atoms: _218  and  _219
REMARK   97  A    between atoms: _219  and  MN_331
REMARK   98  A    between atoms: _221  and  _223
REMARK   99  A    between atoms: _223  and  _224
REMARK  100  A    between atoms: _223  and  _226
REMARK  101  A    between atoms: _226  and  _227
REMARK  102  A    between atoms: _230  and  _232
REMARK  103  A    between atoms: _232  and  _233
REMARK  104  A    between atoms: _232  and  _235
REMARK  105  A    between atoms: _235  and  _236
REMARK  106  A    between atoms: _236  and  _237
REMARK  107  A    between atoms: _240  and  _242
REMARK  108  A    between atoms: _242  and  _243
REMARK  109  A    between atoms: _242  and  _245
REMARK  110  A    between atoms: _245  and  _246
REMARK  111  A    between atoms: _252  and  _254
REMARK  112  A    between atoms: _254  and  _255
REMARK  113  A    between atoms: _257  and  _259
REMARK  114  A    between atoms: _259  and  _260
REMARK  115  A    between atoms: _259  and  _262
REMARK  116  A    between atoms: _265  and  _267
REMARK  117  A    between atoms: _267  and  _268
REMARK  118  A    between atoms: _267  and  _270
REMARK  119  A    between atoms: _270  and  _271
REMARK  120  A    between atoms: _276  and  _278
REMARK  121  A    between atoms: _278  and  _279
REMARK  122  A    between atoms: _278  and  _281
REMARK  123  A    between atoms: _281  and  _282
REMARK  124  A    between atoms: _287  and  _289
REMARK  125  A    between atoms: _289  and  _290
REMARK  126  A    between atoms: _289  and  _292
REMARK  127  A    between atoms: _292  and  _293
REMARK  128  A    between atoms: _295  and  _297
REMARK  129  A    between atoms: _297  and  _298
REMARK  130  A    between atoms: _297  and  _300
REMARK  131  A    between atoms: _300  and  _301
REMARK  132  A    between atoms: _301  and  _302
REMARK  133  A    between atoms: _302  and  _303
REMARK  134  A    between atoms: _313  and  _314
REMARK  135  A    between atoms: _319  and  _321
REMARK  136  A    between atoms: _321  and  _322
REMARK  137  A    between atoms: _321  and  _324
REMARK  138  A    between atoms: _324  and  _325
REMARK                            x       y       z     vdW  Elec       q    Type
REMARK                         _______ _______ _______ _____ _____    ______ ____
ROOT
ATOM      1  O   HOH     1       4.872 -12.866  13.202  0.00  0.00    +0.000 OA
ENDROOT
TORSDOF 0
REMARK  Name = ../refined-set-2016/2rke/2rke_pocket.pdb
REMARK  138 active torsions:
REMARK  status: ('A' for Active; 'I' for Inactive)
REMARK    1  A    between atoms: _1  and  _3
REMARK    2  A    between atoms: _3  and  _4
REMARK    3  A    between atoms: _3  and  _6
REMARK    4  A    between atoms: _6  and  _7
REMARK    5  A    between atoms: _10  and  _12
REMARK    6  A    between atoms: _12  and  _13
REMARK    7  A    between atoms: _12  and  _15
REMARK    8  A    between atoms: _18  and  _20
REMARK    9  A    between atoms: _20  and  _21
REMARK   10  A    between atoms: _24  and  _26
REMARK   11  A    between atoms: _26  and  _27
REMARK   12  A    between atoms: _26  and  _29
REMARK   13  A    between atoms: _29  and  _30
REMARK   14  A    between atoms: _30  and  _31
REMARK   15  A    between atoms: _31  and  _32
REMARK   16  A    between atoms: _41  and  _43
REMARK   17  A    between atoms: _43  and  _44
REMARK   18  A    between atoms: _43  and  _46
REMARK   19  A    between atoms: _46  and  _47
REMARK   20  A    between atoms: _50  and  _52
REMARK   21  A    between atoms: _52  and  _53
REMARK   22  A    between atoms: _52  and  _55
REMARK   23  A    between atoms: _55  and  _56
REMARK   24  A    between atoms: _61  and  _62
REMARK   25  A    between atoms: _64  and  _66
REMARK   26  A    between atoms: _66  and  _67
REMARK   27  A    between atoms: _66  and  _69
REMARK   28  A    between atoms: _69  and  _70
REMARK   29  A    between atoms: _70  and  _71
REMARK   30  A    between atoms: _73  and  _75
REMARK   31  A    between atoms: _75  and  _76
REMARK   32  A    between atoms: _75  and  _78
REMARK   33  A    between atoms: _78  and  _79
REMARK   34  A    between atoms: _81  and  _83
REMARK   35  A    between atoms: _83  and  _84
REMARK   36  A    between atoms: _86  and  _88
REMARK   37  A    between atoms: _88  and  _89
REMARK   38  A    between atoms: _88  and  _91
REMARK   39  A    between atoms: _91  and  _92
REMARK   40  A    between atoms: _97  and  _98
REMARK   41  A    between atoms: _100  and  _102
REMARK   42  A    between atoms: _102  and  _103
REMARK   43  A    between atoms: _105  and  _107
REMARK   44  A    between atoms: _107  and  _108
REMARK   45  A    between atoms: _110  and  _112
REMARK   46  A    between atoms: _112  and  _113
REMARK   47  A    between atoms: _112  and  _115
REMARK   48  A    between atoms: _115  and  _116
REMARK   49  A    between atoms: _121  and  _123
REMARK   50  A    between atoms: _123  and  _124
REMARK   51  A    between atoms: _123  and  _126
REMARK   52  A    between atoms: _126  and  _127
REMARK   53  A    between atoms: _129  and  _131
REMARK   54  A    between atoms: _131  and  _132
REMARK   55  A    between atoms: _131  and  _134
REMARK   56  A    between atoms: _134  and  _135
REMARK   57  A    between atoms: _138  and  _140
REMARK   58  A    between atoms: _140  and  _141
REMARK   59  A    between atoms: _140  and  _143
REMARK   60  A    between atoms: _143  and  _144
REMARK   61  A    between atoms: _144  and  _145
REMARK   62  A    between atoms: _145  and  _146
REMARK   63  A    between atoms: _146  and  _147
REMARK   64  A    between atoms: _151  and  _153
REMARK   65  A    between atoms: _153  and  _154
REMARK   66  A    between atoms: _153  and  _156
REMARK   67  A    between atoms: _156  and  _157
REMARK   68  A    between atoms: _157  and  _158
REMARK   69  A    between atoms: _158  and  _159
REMARK   70  A    between atoms: _159  and  _160
REMARK   71  A    between atoms: _164  and  _166
REMARK   72  A    between atoms: _166  and  _167
REMARK   73  A    between atoms: _166  and  _169
REMARK   74  A    between atoms: _171  and  _173
REMARK   75  A    between atoms: _173  and  _174
REMARK   76  A    between atoms: _173  and  _176
REMARK   77  A    between atoms: _176  and  _177
REMARK   78  A    between atoms: _177  and  _178
REMARK   79  A    between atoms: _178  and  _179
REMARK   80  A    between atoms: _188  and  _190
REMARK   81  A    between atoms: _190  and  _191
REMARK   82  A    between atoms: _190  and  _193
REMARK   83  A    between atoms: _193  and  _194
REMARK   84  A    between atoms: _198  and  MN_331
REMARK   85  A    between atoms: _199  and  _201
REMARK   86  A    between atoms: _201  and  _202
REMARK   87  A    between atoms: _201  and  _204
REMARK   88  A    between atoms: _204  and  _205
REMARK   89  A    between atoms: _205  and  _206
REMARK   90  A    between atoms: _206  and  _207
REMARK   91  A    between atoms: _207  and  _208
REMARK   92  A    between atoms: _212  and  _214
REMARK   93  A    between atoms: _214  and  _215
REMARK   94  A    between atoms: _214  and  _217
REMARK   95  A    between atoms: _217  and  _218
REMARK   96  A    between atoms: _218  and  _219
REMARK   97  A    between atoms: _219  and  MN_331
REMARK   98  A    between atoms: _221  and  _223
REMARK   99  A    between atoms: _223  and  _224
REMARK  100  A    between atoms: _223  and  _226
REMARK  101  A    between atoms: _226  and  _227
REMARK  102  A    between atoms: _230  and  _232
REMARK  103  A    between atoms: _232  and  _233
REMARK  104  A    between atoms: _232  and  _235
REMARK  105  A    between atoms: _235  and  _236
REMARK  106  A    between atoms: _236  and  _237
REMARK  107  A    between atoms: _240  and  _242
REMARK  108  A    between atoms: _242  and  _243
REMARK  109  A    between atoms: _242  and  _245
REMARK  110  A    between atoms: _245  and  _246
REMARK  111  A    between atoms: _252  and  _254
REMARK  112  A    between atoms: _254  and  _255
REMARK  113  A    between atoms: _257  and  _259
REMARK  114  A    between atoms: _259  and  _260
REMARK  115  A    between atoms: _259  and  _262
REMARK  116  A    between atoms: _265  and  _267
REMARK  117  A    between atoms: _267  and  _268
REMARK  118  A    between atoms: _267  and  _270
REMARK  119  A    between atoms: _270  and  _271
REMARK  120  A    between atoms: _276  and  _278
REMARK  121  A    between atoms: _278  and  _279
REMARK  122  A    between atoms: _278  and  _281
REMARK  123  A    between atoms: _281  and  _282
REMARK  124  A    between atoms: _287  and  _289
REMARK  125  A    between atoms: _289  and  _290
REMARK  126  A    between atoms: _289  and  _292
REMARK  127  A    between atoms: _292  and  _293
REMARK  128  A    between atoms: _295  and  _297
REMARK  129  A    between atoms: _297  and  _298
REMARK  130  A    between atoms: _297  and  _300
REMARK  131  A    between atoms: _300  and  _301
REMARK  132  A    between atoms: _301  and  _302
REMARK  133  A    between atoms: _302  and  _303
REMARK  134  A    between atoms: _313  and  _314
REMARK  135  A    between atoms: _319  and  _321
REMARK  136  A    between atoms: _321  and  _322
REMARK  137  A    between atoms: _321  and  _324
REMARK  138  A    between atoms: _324  and  _325
REMARK                            x       y       z     vdW  Elec       q    Type
REMARK                         _______ _______ _______ _____ _____    ______ ____
ROOT
ATOM      1  O   HOH     1       1.308  -4.542   1.151  0.00  0.00    +0.000 OA
ENDROOT
TORSDOF 0
REMARK  Name = ../refined-set-2016/2rke/2rke_pocket.pdb
REMARK  138 active torsions:
REMARK  status: ('A' for Active; 'I' for Inactive)
REMARK    1  A    between atoms: _1  and  _3
REMARK    2  A    between atoms: _3  and  _4
REMARK    3  A    between atoms: _3  and  _6
REMARK    4  A    between atoms: _6  and  _7
REMARK    5  A    between atoms: _10  and  _12
REMARK    6  A    between atoms: _12  and  _13
REMARK    7  A    between atoms: _12  and  _15
REMARK    8  A    between atoms: _18  and  _20
REMARK    9  A    between atoms: _20  and  _21
REMARK   10  A    between atoms: _24  and  _26
REMARK   11  A    between atoms: _26  and  _27
REMARK   12  A    between atoms: _26  and  _29
REMARK   13  A    between atoms: _29  and  _30
REMARK   14  A    between atoms: _30  and  _31
REMARK   15  A    between atoms: _31  and  _32
REMARK   16  A    between atoms: _41  and  _43
REMARK   17  A    between atoms: _43  and  _44
REMARK   18  A    between atoms: _43  and  _46
REMARK   19  A    between atoms: _46  and  _47
REMARK   20  A    between atoms: _50  and  _52
REMARK   21  A    between atoms: _52  and  _53
REMARK   22  A    between atoms: _52  and  _55
REMARK   23  A    between atoms: _55  and  _56
REMARK   24  A    between atoms: _61  and  _62
REMARK   25  A    between atoms: _64  and  _66
REMARK   26  A    between atoms: _66  and  _67
REMARK   27  A    between atoms: _66  and  _69
REMARK   28  A    between atoms: _69  and  _70
REMARK   29  A    between atoms: _70  and  _71
REMARK   30  A    between atoms: _73  and  _75
REMARK   31  A    between atoms: _75  and  _76
REMARK   32  A    between atoms: _75  and  _78
REMARK   33  A    between atoms: _78  and  _79
REMARK   34  A    between atoms: _81  and  _83
REMARK   35  A    between atoms: _83  and  _84
REMARK   36  A    between atoms: _86  and  _88
REMARK   37  A    between atoms: _88  and  _89
REMARK   38  A    between atoms: _88  and  _91
REMARK   39  A    between atoms: _91  and  _92
REMARK   40  A    between atoms: _97  and  _98
REMARK   41  A    between atoms: _100  and  _102
REMARK   42  A    between atoms: _102  and  _103
REMARK   43  A    between atoms: _105  and  _107
REMARK   44  A    between atoms: _107  and  _108
REMARK   45  A    between atoms: _110  and  _112
REMARK   46  A    between atoms: _112  and  _113
REMARK   47  A    between atoms: _112  and  _115
REMARK   48  A    between atoms: _115  and  _116
REMARK   49  A    between atoms: _121  and  _123
REMARK   50  A    between atoms: _123  and  _124
REMARK   51  A    between atoms: _123  and  _126
REMARK   52  A    between atoms: _126  and  _127
REMARK   53  A    between atoms: _129  and  _131
REMARK   54  A    between atoms: _131  and  _132
REMARK   55  A    between atoms: _131  and  _134
REMARK   56  A    between atoms: _134  and  _135
REMARK   57  A    between atoms: _138  and  _140
REMARK   58  A    between atoms: _140  and  _141
REMARK   59  A    between atoms: _140  and  _143
REMARK   60  A    between atoms: _143  and  _144
REMARK   61  A    between atoms: _144  and  _145
REMARK   62  A    between atoms: _145  and  _146
REMARK   63  A    between atoms: _146  and  _147
REMARK   64  A    between atoms: _151  and  _153
REMARK   65  A    between atoms: _153  and  _154
REMARK   66  A    between atoms: _153  and  _156
REMARK   67  A    between atoms: _156  and  _157
REMARK   68  A    between atoms: _157  and  _158
REMARK   69  A    between atoms: _158  and  _159
REMARK   70  A    between atoms: _159  and  _160
REMARK   71  A    between atoms: _164  and  _166
REMARK   72  A    between atoms: _166  and  _167
REMARK   73  A    between atoms: _166  and  _169
REMARK   74  A    between atoms: _171  and  _173
REMARK   75  A    between atoms: _173  and  _174
REMARK   76  A    between atoms: _173  and  _176
REMARK   77  A    between atoms: _176  and  _177
REMARK   78  A    between atoms: _177  and  _178
REMARK   79  A    between atoms: _178  and  _179
REMARK   80  A    between atoms: _188  and  _190
REMARK   81  A    between atoms: _190  and  _191
REMARK   82  A    between atoms: _190  and  _193
REMARK   83  A    between atoms: _193  and  _194
REMARK   84  A    between atoms: _198  and  MN_331
REMARK   85  A    between atoms: _199  and  _201
REMARK   86  A    between atoms: _201  and  _202
REMARK   87  A    between atoms: _201  and  _204
REMARK   88  A    between atoms: _204  and  _205
REMARK   89  A    between atoms: _205  and  _206
REMARK   90  A    between atoms: _206  and  _207
REMARK   91  A    between atoms: _207  and  _208
REMARK   92  A    between atoms: _212  and  _214
REMARK   93  A    between atoms: _214  and  _215
REMARK   94  A    between atoms: _214  and  _217
REMARK   95  A    between atoms: _217  and  _218
REMARK   96  A    between atoms: _218  and  _219
REMARK   97  A    between atoms: _219  and  MN_331
REMARK   98  A    between atoms: _221  and  _223
REMARK   99  A    between atoms: _223  and  _224
REMARK  100  A    between atoms: _223  and  _226
REMARK  101  A    between atoms: _226  and  _227
REMARK  102  A    between atoms: _230  and  _232
REMARK  103  A    between atoms: _232  and  _233
REMARK  104  A    between atoms: _232  and  _235
REMARK  105  A    between atoms: _235  and  _236
REMARK  106  A    between atoms: _236  and  _237
REMARK  107  A    between atoms: _240  and  _242
REMARK  108  A    between atoms: _242  and  _243
REMARK  109  A    between atoms: _242  and  _245
REMARK  110  A    between atoms: _245  and  _246
REMARK  111  A    between atoms: _252  and  _254
REMARK  112  A    between atoms: _254  and  _255
REMARK  113  A    between atoms: _257  and  _259
REMARK  114  A    between atoms: _259  and  _260
REMARK  115  A    between atoms: _259  and  _262
REMARK  116  A    between atoms: _265  and  _267
REMARK  117  A    between atoms: _267  and  _268
REMARK  118  A    between atoms: _267  and  _270
REMARK  119  A    between atoms: _270  and  _271
REMARK  120  A    between atoms: _276  and  _278
REMARK  121  A    between atoms: _278  and  _279
REMARK  122  A    between atoms: _278  and  _281
REMARK  123  A    between atoms: _281  and  _282
REMARK  124  A    between atoms: _287  and  _289
REMARK  125  A    between atoms: _289  and  _290
REMARK  126  A    between atoms: _289  and  _292
REMARK  127  A    between atoms: _292  and  _293
REMARK  128  A    between atoms: _295  and  _297
REMARK  129  A    between atoms: _297  and  _298
REMARK  130  A    between atoms: _297  and  _300
REMARK  131  A    between atoms: _300  and  _301
REMARK  132  A    between atoms: _301  and  _302
REMARK  133  A    between atoms: _302  and  _303
REMARK  134  A    between atoms: _313  and  _314
REMARK  135  A    between atoms: _319  and  _321
REMARK  136  A    between atoms: _321  and  _322
REMARK  137  A    between atoms: _321  and  _324
REMARK  138  A    between atoms: _324  and  _325
REMARK                            x       y       z     vdW  Elec       q    Type
REMARK                         _______ _______ _______ _____ _____    ______ ____
ROOT
ATOM      1  O   HOH     1       8.529   0.109   9.668  0.00  0.00    +0.000 OA
ENDROOT
TORSDOF 0
REMARK  Name = ../refined-set-2016/2rke/2rke_pocket.pdb
REMARK  138 active torsions:
REMARK  status: ('A' for Active; 'I' for Inactive)
REMARK    1  A    between atoms: _1  and  _3
REMARK    2  A    between atoms: _3  and  _4
REMARK    3  A    between atoms: _3  and  _6
REMARK    4  A    between atoms: _6  and  _7
REMARK    5  A    between atoms: _10  and  _12
REMARK    6  A    between atoms: _12  and  _13
REMARK    7  A    between atoms: _12  and  _15
REMARK    8  A    between atoms: _18  and  _20
REMARK    9  A    between atoms: _20  and  _21
REMARK   10  A    between atoms: _24  and  _26
REMARK   11  A    between atoms: _26  and  _27
REMARK   12  A    between atoms: _26  and  _29
REMARK   13  A    between atoms: _29  and  _30
REMARK   14  A    between atoms: _30  and  _31
REMARK   15  A    between atoms: _31  and  _32
REMARK   16  A    between atoms: _41  and  _43
REMARK   17  A    between atoms: _43  and  _44
REMARK   18  A    between atoms: _43  and  _46
REMARK   19  A    between atoms: _46  and  _47
REMARK   20  A    between atoms: _50  and  _52
REMARK   21  A    between atoms: _52  and  _53
REMARK   22  A    between atoms: _52  and  _55
REMARK   23  A    between atoms: _55  and  _56
REMARK   24  A    between atoms: _61  and  _62
REMARK   25  A    between atoms: _64  and  _66
REMARK   26  A    between atoms: _66  and  _67
REMARK   27  A    between atoms: _66  and  _69
REMARK   28  A    between atoms: _69  and  _70
REMARK   29  A    between atoms: _70  and  _71
REMARK   30  A    between atoms: _73  and  _75
REMARK   31  A    between atoms: _75  and  _76
REMARK   32  A    between atoms: _75  and  _78
REMARK   33  A    between atoms: _78  and  _79
REMARK   34  A    between atoms: _81  and  _83
REMARK   35  A    between atoms: _83  and  _84
REMARK   36  A    between atoms: _86  and  _88
REMARK   37  A    between atoms: _88  and  _89
REMARK   38  A    between atoms: _88  and  _91
REMARK   39  A    between atoms: _91  and  _92
REMARK   40  A    between atoms: _97  and  _98
REMARK   41  A    between atoms: _100  and  _102
REMARK   42  A    between atoms: _102  and  _103
REMARK   43  A    between atoms: _105  and  _107
REMARK   44  A    between atoms: _107  and  _108
REMARK   45  A    between atoms: _110  and  _112
REMARK   46  A    between atoms: _112  and  _113
REMARK   47  A    between atoms: _112  and  _115
REMARK   48  A    between atoms: _115  and  _116
REMARK   49  A    between atoms: _121  and  _123
REMARK   50  A    between atoms: _123  and  _124
REMARK   51  A    between atoms: _123  and  _126
REMARK   52  A    between atoms: _126  and  _127
REMARK   53  A    between atoms: _129  and  _131
REMARK   54  A    between atoms: _131  and  _132
REMARK   55  A    between atoms: _131  and  _134
REMARK   56  A    between atoms: _134  and  _135
REMARK   57  A    between atoms: _138  and  _140
REMARK   58  A    between atoms: _140  and  _141
REMARK   59  A    between atoms: _140  and  _143
REMARK   60  A    between atoms: _143  and  _144
REMARK   61  A    between atoms: _144  and  _145
REMARK   62  A    between atoms: _145  and  _146
REMARK   63  A    between atoms: _146  and  _147
REMARK   64  A    between atoms: _151  and  _153
REMARK   65  A    between atoms: _153  and  _154
REMARK   66  A    between atoms: _153  and  _156
REMARK   67  A    between atoms: _156  and  _157
REMARK   68  A    between atoms: _157  and  _158
REMARK   69  A    between atoms: _158  and  _159
REMARK   70  A    between atoms: _159  and  _160
REMARK   71  A    between atoms: _164  and  _166
REMARK   72  A    between atoms: _166  and  _167
REMARK   73  A    between atoms: _166  and  _169
REMARK   74  A    between atoms: _171  and  _173
REMARK   75  A    between atoms: _173  and  _174
REMARK   76  A    between atoms: _173  and  _176
REMARK   77  A    between atoms: _176  and  _177
REMARK   78  A    between atoms: _177  and  _178
REMARK   79  A    between atoms: _178  and  _179
REMARK   80  A    between atoms: _188  and  _190
REMARK   81  A    between atoms: _190  and  _191
REMARK   82  A    between atoms: _190  and  _193
REMARK   83  A    between atoms: _193  and  _194
REMARK   84  A    between atoms: _198  and  MN_331
REMARK   85  A    between atoms: _199  and  _201
REMARK   86  A    between atoms: _201  and  _202
REMARK   87  A    between atoms: _201  and  _204
REMARK   88  A    between atoms: _204  and  _205
REMARK   89  A    between atoms: _205  and  _206
REMARK   90  A    between atoms: _206  and  _207
REMARK   91  A    between atoms: _207  and  _208
REMARK   92  A    between atoms: _212  and  _214
REMARK   93  A    between atoms: _214  and  _215
REMARK   94  A    between atoms: _214  and  _217
REMARK   95  A    between atoms: _217  and  _218
REMARK   96  A    between atoms: _218  and  _219
REMARK   97  A    between atoms: _219  and  MN_331
REMARK   98  A    between atoms: _221  and  _223
REMARK   99  A    between atoms: _223  and  _224
REMARK  100  A    between atoms: _223  and  _226
REMARK  101  A    between atoms: _226  and  _227
REMARK  102  A    between atoms: _230  and  _232
REMARK  103  A    between atoms: _232  and  _233
REMARK  104  A    between atoms: _232  and  _235
REMARK  105  A    between atoms: _235  and  _236
REMARK  106  A    between atoms: _236  and  _237
REMARK  107  A    between atoms: _240  and  _242
REMARK  108  A    between atoms: _242  and  _243
REMARK  109  A    between atoms: _242  and  _245
REMARK  110  A    between atoms: _245  and  _246
REMARK  111  A    between atoms: _252  and  _254
REMARK  112  A    between atoms: _254  and  _255
REMARK  113  A    between atoms: _257  and  _259
REMARK  114  A    between atoms: _259  and  _260
REMARK  115  A    between atoms: _259  and  _262
REMARK  116  A    between atoms: _265  and  _267
REMARK  117  A    between atoms: _267  and  _268
REMARK  118  A    between atoms: _267  and  _270
REMARK  119  A    between atoms: _270  and  _271
REMARK  120  A    between atoms: _276  and  _278
REMARK  121  A    between atoms: _278  and  _279
REMARK  122  A    between atoms: _278  and  _281
REMARK  123  A    between atoms: _281  and  _282
REMARK  124  A    between atoms: _287  and  _289
REMARK  125  A    between atoms: _289  and  _290
REMARK  126  A    between atoms: _289  and  _292
REMARK  127  A    between atoms: _292  and  _293
REMARK  128  A    between atoms: _295  and  _297
REMARK  129  A    between atoms: _297  and  _298
REMARK  130  A    between atoms: _297  and  _300
REMARK  131  A    between atoms: _300  and  _301
REMARK  132  A    between atoms: _301  and  _302
REMARK  133  A    between atoms: _302  and  _303
REMARK  134  A    between atoms: _313  and  _314
REMARK  135  A    between atoms: _319  and  _321
REMARK  136  A    between atoms: _321  and  _322
REMARK  137  A    between atoms: _321  and  _324
REMARK  138  A    between atoms: _324  and  _325
REMARK                            x       y       z     vdW  Elec       q    Type
REMARK                         _______ _______ _______ _____ _____    ______ ____
ROOT
ATOM      1  O   HOH     1      -3.726  -4.106   9.918  0.00  0.00    +0.000 OA
ENDROOT
TORSDOF 0
REMARK  Name = ../refined-set-2016/2rke/2rke_pocket.pdb
REMARK  138 active torsions:
REMARK  status: ('A' for Active; 'I' for Inactive)
REMARK    1  A    between atoms: _1  and  _3
REMARK    2  A    between atoms: _3  and  _4
REMARK    3  A    between atoms: _3  and  _6
REMARK    4  A    between atoms: _6  and  _7
REMARK    5  A    between atoms: _10  and  _12
REMARK    6  A    between atoms: _12  and  _13
REMARK    7  A    between atoms: _12  and  _15
REMARK    8  A    between atoms: _18  and  _20
REMARK    9  A    between atoms: _20  and  _21
REMARK   10  A    between atoms: _24  and  _26
REMARK   11  A    between atoms: _26  and  _27
REMARK   12  A    between atoms: _26  and  _29
REMARK   13  A    between atoms: _29  and  _30
REMARK   14  A    between atoms: _30  and  _31
REMARK   15  A    between atoms: _31  and  _32
REMARK   16  A    between atoms: _41  and  _43
REMARK   17  A    between atoms: _43  and  _44
REMARK   18  A    between atoms: _43  and  _46
REMARK   19  A    between atoms: _46  and  _47
REMARK   20  A    between atoms: _50  and  _52
REMARK   21  A    between atoms: _52  and  _53
REMARK   22  A    between atoms: _52  and  _55
REMARK   23  A    between atoms: _55  and  _56
REMARK   24  A    between atoms: _61  and  _62
REMARK   25  A    between atoms: _64  and  _66
REMARK   26  A    between atoms: _66  and  _67
REMARK   27  A    between atoms: _66  and  _69
REMARK   28  A    between atoms: _69  and  _70
REMARK   29  A    between atoms: _70  and  _71
REMARK   30  A    between atoms: _73  and  _75
REMARK   31  A    between atoms: _75  and  _76
REMARK   32  A    between atoms: _75  and  _78
REMARK   33  A    between atoms: _78  and  _79
REMARK   34  A    between atoms: _81  and  _83
REMARK   35  A    between atoms: _83  and  _84
REMARK   36  A    between atoms: _86  and  _88
REMARK   37  A    between atoms: _88  and  _89
REMARK   38  A    between atoms: _88  and  _91
REMARK   39  A    between atoms: _91  and  _92
REMARK   40  A    between atoms: _97  and  _98
REMARK   41  A    between atoms: _100  and  _102
REMARK   42  A    between atoms: _102  and  _103
REMARK   43  A    between atoms: _105  and  _107
REMARK   44  A    between atoms: _107  and  _108
REMARK   45  A    between atoms: _110  and  _112
REMARK   46  A    between atoms: _112  and  _113
REMARK   47  A    between atoms: _112  and  _115
REMARK   48  A    between atoms: _115  and  _116
REMARK   49  A    between atoms: _121  and  _123
REMARK   50  A    between atoms: _123  and  _124
REMARK   51  A    between atoms: _123  and  _126
REMARK   52  A    between atoms: _126  and  _127
REMARK   53  A    between atoms: _129  and  _131
REMARK   54  A    between atoms: _131  and  _132
REMARK   55  A    between atoms: _131  and  _134
REMARK   56  A    between atoms: _134  and  _135
REMARK   57  A    between atoms: _138  and  _140
REMARK   58  A    between atoms: _140  and  _141
REMARK   59  A    between atoms: _140  and  _143
REMARK   60  A    between atoms: _143  and  _144
REMARK   61  A    between atoms: _144  and  _145
REMARK   62  A    between atoms: _145  and  _146
REMARK   63  A    between atoms: _146  and  _147
REMARK   64  A    between atoms: _151  and  _153
REMARK   65  A    between atoms: _153  and  _154
REMARK   66  A    between atoms: _153  and  _156
REMARK   67  A    between atoms: _156  and  _157
REMARK   68  A    between atoms: _157  and  _158
REMARK   69  A    between atoms: _158  and  _159
REMARK   70  A    between atoms: _159  and  _160
REMARK   71  A    between atoms: _164  and  _166
REMARK   72  A    between atoms: _166  and  _167
REMARK   73  A    between atoms: _166  and  _169
REMARK   74  A    between atoms: _171  and  _173
REMARK   75  A    between atoms: _173  and  _174
REMARK   76  A    between atoms: _173  and  _176
REMARK   77  A    between atoms: _176  and  _177
REMARK   78  A    between atoms: _177  and  _178
REMARK   79  A    between atoms: _178  and  _179
REMARK   80  A    between atoms: _188  and  _190
REMARK   81  A    between atoms: _190  and  _191
REMARK   82  A    between atoms: _190  and  _193
REMARK   83  A    between atoms: _193  and  _194
REMARK   84  A    between atoms: _198  and  MN_331
REMARK   85  A    between atoms: _199  and  _201
REMARK   86  A    between atoms: _201  and  _202
REMARK   87  A    between atoms: _201  and  _204
REMARK   88  A    between atoms: _204  and  _205
REMARK   89  A    between atoms: _205  and  _206
REMARK   90  A    between atoms: _206  and  _207
REMARK   91  A    between atoms: _207  and  _208
REMARK   92  A    between atoms: _212  and  _214
REMARK   93  A    between atoms: _214  and  _215
REMARK   94  A    between atoms: _214  and  _217
REMARK   95  A    between atoms: _217  and  _218
REMARK   96  A    between atoms: _218  and  _219
REMARK   97  A    between atoms: _219  and  MN_331
REMARK   98  A    between atoms: _221  and  _223
REMARK   99  A    between atoms: _223  and  _224
REMARK  100  A    between atoms: _223  and  _226
REMARK  101  A    between atoms: _226  and  _227
REMARK  102  A    between atoms: _230  and  _232
REMARK  103  A    between atoms: _232  and  _233
REMARK  104  A    between atoms: _232  and  _235
REMARK  105  A    between atoms: _235  and  _236
REMARK  106  A    between atoms: _236  and  _237
REMARK  107  A    between atoms: _240  and  _242
REMARK  108  A    between atoms: _242  and  _243
REMARK  109  A    between atoms: _242  and  _245
REMARK  110  A    between atoms: _245  and  _246
REMARK  111  A    between atoms: _252  and  _254
REMARK  112  A    between atoms: _254  and  _255
REMARK  113  A    between atoms: _257  and  _259
REMARK  114  A    between atoms: _259  and  _260
REMARK  115  A    between atoms: _259  and  _262
REMARK  116  A    between atoms: _265  and  _267
REMARK  117  A    between atoms: _267  and  _268
REMARK  118  A    between atoms: _267  and  _270
REMARK  119  A    between atoms: _270  and  _271
REMARK  120  A    between atoms: _276  and  _278
REMARK  121  A    between atoms: _278  and  _279
REMARK  122  A    between atoms: _278  and  _281
REMARK  123  A    between atoms: _281  and  _282
REMARK  124  A    between atoms: _287  and  _289
REMARK  125  A    between atoms: _289  and  _290
REMARK  126  A    between atoms: _289  and  _292
REMARK  127  A    between atoms: _292  and  _293
REMARK  128  A    between atoms: _295  and  _297
REMARK  129  A    between atoms: _297  and  _298
REMARK  130  A    between atoms: _297  and  _300
REMARK  131  A    between atoms: _300  and  _301
REMARK  132  A    between atoms: _301  and  _302
REMARK  133  A    between atoms: _302  and  _303
REMARK  134  A    between atoms: _313  and  _314
REMARK  135  A    between atoms: _319  and  _321
REMARK  136  A    between atoms: _321  and  _322
REMARK  137  A    between atoms: _321  and  _324
REMARK  138  A    between atoms: _324  and  _325
REMARK                            x       y       z     vdW  Elec       q    Type
REMARK                         _______ _______ _______ _____ _____    ______ ____
ROOT
ATOM      1  O   HOH     1      -4.858  -2.162  12.657  0.00  0.00    +0.000 OA
ENDROOT
TORSDOF 0
REMARK  Name = ../refined-set-2016/2rke/2rke_pocket.pdb
REMARK  138 active torsions:
REMARK  status: ('A' for Active; 'I' for Inactive)
REMARK    1  A    between atoms: _1  and  _3
REMARK    2  A    between atoms: _3  and  _4
REMARK    3  A    between atoms: _3  and  _6
REMARK    4  A    between atoms: _6  and  _7
REMARK    5  A    between atoms: _10  and  _12
REMARK    6  A    between atoms: _12  and  _13
REMARK    7  A    between atoms: _12  and  _15
REMARK    8  A    between atoms: _18  and  _20
REMARK    9  A    between atoms: _20  and  _21
REMARK   10  A    between atoms: _24  and  _26
REMARK   11  A    between atoms: _26  and  _27
REMARK   12  A    between atoms: _26  and  _29
REMARK   13  A    between atoms: _29  and  _30
REMARK   14  A    between atoms: _30  and  _31
REMARK   15  A    between atoms: _31  and  _32
REMARK   16  A    between atoms: _41  and  _43
REMARK   17  A    between atoms: _43  and  _44
REMARK   18  A    between atoms: _43  and  _46
REMARK   19  A    between atoms: _46  and  _47
REMARK   20  A    between atoms: _50  and  _52
REMARK   21  A    between atoms: _52  and  _53
REMARK   22  A    between atoms: _52  and  _55
REMARK   23  A    between atoms: _55  and  _56
REMARK   24  A    between atoms: _61  and  _62
REMARK   25  A    between atoms: _64  and  _66
REMARK   26  A    between atoms: _66  and  _67
REMARK   27  A    between atoms: _66  and  _69
REMARK   28  A    between atoms: _69  and  _70
REMARK   29  A    between atoms: _70  and  _71
REMARK   30  A    between atoms: _73  and  _75
REMARK   31  A    between atoms: _75  and  _76
REMARK   32  A    between atoms: _75  and  _78
REMARK   33  A    between atoms: _78  and  _79
REMARK   34  A    between atoms: _81  and  _83
REMARK   35  A    between atoms: _83  and  _84
REMARK   36  A    between atoms: _86  and  _88
REMARK   37  A    between atoms: _88  and  _89
REMARK   38  A    between atoms: _88  and  _91
REMARK   39  A    between atoms: _91  and  _92
REMARK   40  A    between atoms: _97  and  _98
REMARK   41  A    between atoms: _100  and  _102
REMARK   42  A    between atoms: _102  and  _103
REMARK   43  A    between atoms: _105  and  _107
REMARK   44  A    between atoms: _107  and  _108
REMARK   45  A    between atoms: _110  and  _112
REMARK   46  A    between atoms: _112  and  _113
REMARK   47  A    between atoms: _112  and  _115
REMARK   48  A    between atoms: _115  and  _116
REMARK   49  A    between atoms: _121  and  _123
REMARK   50  A    between atoms: _123  and  _124
REMARK   51  A    between atoms: _123  and  _126
REMARK   52  A    between atoms: _126  and  _127
REMARK   53  A    between atoms: _129  and  _131
REMARK   54  A    between atoms: _131  and  _132
REMARK   55  A    between atoms: _131  and  _134
REMARK   56  A    between atoms: _134  and  _135
REMARK   57  A    between atoms: _138  and  _140
REMARK   58  A    between atoms: _140  and  _141
REMARK   59  A    between atoms: _140  and  _143
REMARK   60  A    between atoms: _143  and  _144
REMARK   61  A    between atoms: _144  and  _145
REMARK   62  A    between atoms: _145  and  _146
REMARK   63  A    between atoms: _146  and  _147
REMARK   64  A    between atoms: _151  and  _153
REMARK   65  A    between atoms: _153  and  _154
REMARK   66  A    between atoms: _153  and  _156
REMARK   67  A    between atoms: _156  and  _157
REMARK   68  A    between atoms: _157  and  _158
REMARK   69  A    between atoms: _158  and  _159
REMARK   70  A    between atoms: _159  and  _160
REMARK   71  A    between atoms: _164  and  _166
REMARK   72  A    between atoms: _166  and  _167
REMARK   73  A    between atoms: _166  and  _169
REMARK   74  A    between atoms: _171  and  _173
REMARK   75  A    between atoms: _173  and  _174
REMARK   76  A    between atoms: _173  and  _176
REMARK   77  A    between atoms: _176  and  _177
REMARK   78  A    between atoms: _177  and  _178
REMARK   79  A    between atoms: _178  and  _179
REMARK   80  A    between atoms: _188  and  _190
REMARK   81  A    between atoms: _190  and  _191
REMARK   82  A    between atoms: _190  and  _193
REMARK   83  A    between atoms: _193  and  _194
REMARK   84  A    between atoms: _198  and  MN_331
REMARK   85  A    between atoms: _199  and  _201
REMARK   86  A    between atoms: _201  and  _202
REMARK   87  A    between atoms: _201  and  _204
REMARK   88  A    between atoms: _204  and  _205
REMARK   89  A    between atoms: _205  and  _206
REMARK   90  A    between atoms: _206  and  _207
REMARK   91  A    between atoms: _207  and  _208
REMARK   92  A    between atoms: _212  and  _214
REMARK   93  A    between atoms: _214  and  _215
REMARK   94  A    between atoms: _214  and  _217
REMARK   95  A    between atoms: _217  and  _218
REMARK   96  A    between atoms: _218  and  _219
REMARK   97  A    between atoms: _219  and  MN_331
REMARK   98  A    between atoms: _221  and  _223
REMARK   99  A    between atoms: _223  and  _224
REMARK  100  A    between atoms: _223  and  _226
REMARK  101  A    between atoms: _226  and  _227
REMARK  102  A    between atoms: _230  and  _232
REMARK  103  A    between atoms: _232  and  _233
REMARK  104  A    between atoms: _232  and  _235
REMARK  105  A    between atoms: _235  and  _236
REMARK  106  A    between atoms: _236  and  _237
REMARK  107  A    between atoms: _240  and  _242
REMARK  108  A    between atoms: _242  and  _243
REMARK  109  A    between atoms: _242  and  _245
REMARK  110  A    between atoms: _245  and  _246
REMARK  111  A    between atoms: _252  and  _254
REMARK  112  A    between atoms: _254  and  _255
REMARK  113  A    between atoms: _257  and  _259
REMARK  114  A    between atoms: _259  and  _260
REMARK  115  A    between atoms: _259  and  _262
REMARK  116  A    between atoms: _265  and  _267
REMARK  117  A    between atoms: _267  and  _268
REMARK  118  A    between atoms: _267  and  _270
REMARK  119  A    between atoms: _270  and  _271
REMARK  120  A    between atoms: _276  and  _278
REMARK  121  A    between atoms: _278  and  _279
REMARK  122  A    between atoms: _278  and  _281
REMARK  123  A    between atoms: _281  and  _282
REMARK  124  A    between atoms: _287  and  _289
REMARK  125  A    between atoms: _289  and  _290
REMARK  126  A    between atoms: _289  and  _292
REMARK  127  A    between atoms: _292  and  _293
REMARK  128  A    between atoms: _295  and  _297
REMARK  129  A    between atoms: _297  and  _298
REMARK  130  A    between atoms: _297  and  _300
REMARK  131  A    between atoms: _300  and  _301
REMARK  132  A    between atoms: _301  and  _302
REMARK  133  A    between atoms: _302  and  _303
REMARK  134  A    between atoms: _313  and  _314
REMARK  135  A    between atoms: _319  and  _321
REMARK  136  A    between atoms: _321  and  _322
REMARK  137  A    between atoms: _321  and  _324
REMARK  138  A    between atoms: _324  and  _325
REMARK                            x       y       z     vdW  Elec       q    Type
REMARK                         _______ _______ _______ _____ _____    ______ ____
ROOT
ATOM      1  O   HOH     1      -0.808  -3.330  13.119  0.00  0.00    +0.000 OA
ENDROOT
TORSDOF 0
REMARK  Name = ../refined-set-2016/2rke/2rke_pocket.pdb
REMARK  138 active torsions:
REMARK  status: ('A' for Active; 'I' for Inactive)
REMARK    1  A    between atoms: _1  and  _3
REMARK    2  A    between atoms: _3  and  _4
REMARK    3  A    between atoms: _3  and  _6
REMARK    4  A    between atoms: _6  and  _7
REMARK    5  A    between atoms: _10  and  _12
REMARK    6  A    between atoms: _12  and  _13
REMARK    7  A    between atoms: _12  and  _15
REMARK    8  A    between atoms: _18  and  _20
REMARK    9  A    between atoms: _20  and  _21
REMARK   10  A    between atoms: _24  and  _26
REMARK   11  A    between atoms: _26  and  _27
REMARK   12  A    between atoms: _26  and  _29
REMARK   13  A    between atoms: _29  and  _30
REMARK   14  A    between atoms: _30  and  _31
REMARK   15  A    between atoms: _31  and  _32
REMARK   16  A    between atoms: _41  and  _43
REMARK   17  A    between atoms: _43  and  _44
REMARK   18  A    between atoms: _43  and  _46
REMARK   19  A    between atoms: _46  and  _47
REMARK   20  A    between atoms: _50  and  _52
REMARK   21  A    between atoms: _52  and  _53
REMARK   22  A    between atoms: _52  and  _55
REMARK   23  A    between atoms: _55  and  _56
REMARK   24  A    between atoms: _61  and  _62
REMARK   25  A    between atoms: _64  and  _66
REMARK   26  A    between atoms: _66  and  _67
REMARK   27  A    between atoms: _66  and  _69
REMARK   28  A    between atoms: _69  and  _70
REMARK   29  A    between atoms: _70  and  _71
REMARK   30  A    between atoms: _73  and  _75
REMARK   31  A    between atoms: _75  and  _76
REMARK   32  A    between atoms: _75  and  _78
REMARK   33  A    between atoms: _78  and  _79
REMARK   34  A    between atoms: _81  and  _83
REMARK   35  A    between atoms: _83  and  _84
REMARK   36  A    between atoms: _86  and  _88
REMARK   37  A    between atoms: _88  and  _89
REMARK   38  A    between atoms: _88  and  _91
REMARK   39  A    between atoms: _91  and  _92
REMARK   40  A    between atoms: _97  and  _98
REMARK   41  A    between atoms: _100  and  _102
REMARK   42  A    between atoms: _102  and  _103
REMARK   43  A    between atoms: _105  and  _107
REMARK   44  A    between atoms: _107  and  _108
REMARK   45  A    between atoms: _110  and  _112
REMARK   46  A    between atoms: _112  and  _113
REMARK   47  A    between atoms: _112  and  _115
REMARK   48  A    between atoms: _115  and  _116
REMARK   49  A    between atoms: _121  and  _123
REMARK   50  A    between atoms: _123  and  _124
REMARK   51  A    between atoms: _123  and  _126
REMARK   52  A    between atoms: _126  and  _127
REMARK   53  A    between atoms: _129  and  _131
REMARK   54  A    between atoms: _131  and  _132
REMARK   55  A    between atoms: _131  and  _134
REMARK   56  A    between atoms: _134  and  _135
REMARK   57  A    between atoms: _138  and  _140
REMARK   58  A    between atoms: _140  and  _141
REMARK   59  A    between atoms: _140  and  _143
REMARK   60  A    between atoms: _143  and  _144
REMARK   61  A    between atoms: _144  and  _145
REMARK   62  A    between atoms: _145  and  _146
REMARK   63  A    between atoms: _146  and  _147
REMARK   64  A    between atoms: _151  and  _153
REMARK   65  A    between atoms: _153  and  _154
REMARK   66  A    between atoms: _153  and  _156
REMARK   67  A    between atoms: _156  and  _157
REMARK   68  A    between atoms: _157  and  _158
REMARK   69  A    between atoms: _158  and  _159
REMARK   70  A    between atoms: _159  and  _160
REMARK   71  A    between atoms: _164  and  _166
REMARK   72  A    between atoms: _166  and  _167
REMARK   73  A    between atoms: _166  and  _169
REMARK   74  A    between atoms: _171  and  _173
REMARK   75  A    between atoms: _173  and  _174
REMARK   76  A    between atoms: _173  and  _176
REMARK   77  A    between atoms: _176  and  _177
REMARK   78  A    between atoms: _177  and  _178
REMARK   79  A    between atoms: _178  and  _179
REMARK   80  A    between atoms: _188  and  _190
REMARK   81  A    between atoms: _190  and  _191
REMARK   82  A    between atoms: _190  and  _193
REMARK   83  A    between atoms: _193  and  _194
REMARK   84  A    between atoms: _198  and  MN_331
REMARK   85  A    between atoms: _199  and  _201
REMARK   86  A    between atoms: _201  and  _202
REMARK   87  A    between atoms: _201  and  _204
REMARK   88  A    between atoms: _204  and  _205
REMARK   89  A    between atoms: _205  and  _206
REMARK   90  A    between atoms: _206  and  _207
REMARK   91  A    between atoms: _207  and  _208
REMARK   92  A    between atoms: _212  and  _214
REMARK   93  A    between atoms: _214  and  _215
REMARK   94  A    between atoms: _214  and  _217
REMARK   95  A    between atoms: _217  and  _218
REMARK   96  A    between atoms: _218  and  _219
REMARK   97  A    between atoms: _219  and  MN_331
REMARK   98  A    between atoms: _221  and  _223
REMARK   99  A    between atoms: _223  and  _224
REMARK  100  A    between atoms: _223  and  _226
REMARK  101  A    between atoms: _226  and  _227
REMARK  102  A    between atoms: _230  and  _232
REMARK  103  A    between atoms: _232  and  _233
REMARK  104  A    between atoms: _232  and  _235
REMARK  105  A    between atoms: _235  and  _236
REMARK  106  A    between atoms: _236  and  _237
REMARK  107  A    between atoms: _240  and  _242
REMARK  108  A    between atoms: _242  and  _243
REMARK  109  A    between atoms: _242  and  _245
REMARK  110  A    between atoms: _245  and  _246
REMARK  111  A    between atoms: _252  and  _254
REMARK  112  A    between atoms: _254  and  _255
REMARK  113  A    between atoms: _257  and  _259
REMARK  114  A    between atoms: _259  and  _260
REMARK  115  A    between atoms: _259  and  _262
REMARK  116  A    between atoms: _265  and  _267
REMARK  117  A    between atoms: _267  and  _268
REMARK  118  A    between atoms: _267  and  _270
REMARK  119  A    between atoms: _270  and  _271
REMARK  120  A    between atoms: _276  and  _278
REMARK  121  A    between atoms: _278  and  _279
REMARK  122  A    between atoms: _278  and  _281
REMARK  123  A    between atoms: _281  and  _282
REMARK  124  A    between atoms: _287  and  _289
REMARK  125  A    between atoms: _289  and  _290
REMARK  126  A    between atoms: _289  and  _292
REMARK  127  A    between atoms: _292  and  _293
REMARK  128  A    between atoms: _295  and  _297
REMARK  129  A    between atoms: _297  and  _298
REMARK  130  A    between atoms: _297  and  _300
REMARK  131  A    between atoms: _300  and  _301
REMARK  132  A    between atoms: _301  and  _302
REMARK  133  A    between atoms: _302  and  _303
REMARK  134  A    between atoms: _313  and  _314
REMARK  135  A    between atoms: _319  and  _321
REMARK  136  A    between atoms: _321  and  _322
REMARK  137  A    between atoms: _321  and  _324
REMARK  138  A    between atoms: _324  and  _325
REMARK                            x       y       z     vdW  Elec       q    Type
REMARK                         _______ _______ _______ _____ _____    ______ ____
ROOT
ATOM      1  O   HOH     1      -4.016  -4.611  15.025  0.00  0.00    +0.000 OA
ENDROOT
TORSDOF 0
REMARK  Name = ../refined-set-2016/2rke/2rke_pocket.pdb
REMARK  138 active torsions:
REMARK  status: ('A' for Active; 'I' for Inactive)
REMARK    1  A    between atoms: _1  and  _3
REMARK    2  A    between atoms: _3  and  _4
REMARK    3  A    between atoms: _3  and  _6
REMARK    4  A    between atoms: _6  and  _7
REMARK    5  A    between atoms: _10  and  _12
REMARK    6  A    between atoms: _12  and  _13
REMARK    7  A    between atoms: _12  and  _15
REMARK    8  A    between atoms: _18  and  _20
REMARK    9  A    between atoms: _20  and  _21
REMARK   10  A    between atoms: _24  and  _26
REMARK   11  A    between atoms: _26  and  _27
REMARK   12  A    between atoms: _26  and  _29
REMARK   13  A    between atoms: _29  and  _30
REMARK   14  A    between atoms: _30  and  _31
REMARK   15  A    between atoms: _31  and  _32
REMARK   16  A    between atoms: _41  and  _43
REMARK   17  A    between atoms: _43  and  _44
REMARK   18  A    between atoms: _43  and  _46
REMARK   19  A    between atoms: _46  and  _47
REMARK   20  A    between atoms: _50  and  _52
REMARK   21  A    between atoms: _52  and  _53
REMARK   22  A    between atoms: _52  and  _55
REMARK   23  A    between atoms: _55  and  _56
REMARK   24  A    between atoms: _61  and  _62
REMARK   25  A    between atoms: _64  and  _66
REMARK   26  A    between atoms: _66  and  _67
REMARK   27  A    between atoms: _66  and  _69
REMARK   28  A    between atoms: _69  and  _70
REMARK   29  A    between atoms: _70  and  _71
REMARK   30  A    between atoms: _73  and  _75
REMARK   31  A    between atoms: _75  and  _76
REMARK   32  A    between atoms: _75  and  _78
REMARK   33  A    between atoms: _78  and  _79
REMARK   34  A    between atoms: _81  and  _83
REMARK   35  A    between atoms: _83  and  _84
REMARK   36  A    between atoms: _86  and  _88
REMARK   37  A    between atoms: _88  and  _89
REMARK   38  A    between atoms: _88  and  _91
REMARK   39  A    between atoms: _91  and  _92
REMARK   40  A    between atoms: _97  and  _98
REMARK   41  A    between atoms: _100  and  _102
REMARK   42  A    between atoms: _102  and  _103
REMARK   43  A    between atoms: _105  and  _107
REMARK   44  A    between atoms: _107  and  _108
REMARK   45  A    between atoms: _110  and  _112
REMARK   46  A    between atoms: _112  and  _113
REMARK   47  A    between atoms: _112  and  _115
REMARK   48  A    between atoms: _115  and  _116
REMARK   49  A    between atoms: _121  and  _123
REMARK   50  A    between atoms: _123  and  _124
REMARK   51  A    between atoms: _123  and  _126
REMARK   52  A    between atoms: _126  and  _127
REMARK   53  A    between atoms: _129  and  _131
REMARK   54  A    between atoms: _131  and  _132
REMARK   55  A    between atoms: _131  and  _134
REMARK   56  A    between atoms: _134  and  _135
REMARK   57  A    between atoms: _138  and  _140
REMARK   58  A    between atoms: _140  and  _141
REMARK   59  A    between atoms: _140  and  _143
REMARK   60  A    between atoms: _143  and  _144
REMARK   61  A    between atoms: _144  and  _145
REMARK   62  A    between atoms: _145  and  _146
REMARK   63  A    between atoms: _146  and  _147
REMARK   64  A    between atoms: _151  and  _153
REMARK   65  A    between atoms: _153  and  _154
REMARK   66  A    between atoms: _153  and  _156
REMARK   67  A    between atoms: _156  and  _157
REMARK   68  A    between atoms: _157  and  _158
REMARK   69  A    between atoms: _158  and  _159
REMARK   70  A    between atoms: _159  and  _160
REMARK   71  A    between atoms: _164  and  _166
REMARK   72  A    between atoms: _166  and  _167
REMARK   73  A    between atoms: _166  and  _169
REMARK   74  A    between atoms: _171  and  _173
REMARK   75  A    between atoms: _173  and  _174
REMARK   76  A    between atoms: _173  and  _176
REMARK   77  A    between atoms: _176  and  _177
REMARK   78  A    between atoms: _177  and  _178
REMARK   79  A    between atoms: _178  and  _179
REMARK   80  A    between atoms: _188  and  _190
REMARK   81  A    between atoms: _190  and  _191
REMARK   82  A    between atoms: _190  and  _193
REMARK   83  A    between atoms: _193  and  _194
REMARK   84  A    between atoms: _198  and  MN_331
REMARK   85  A    between atoms: _199  and  _201
REMARK   86  A    between atoms: _201  and  _202
REMARK   87  A    between atoms: _201  and  _204
REMARK   88  A    between atoms: _204  and  _205
REMARK   89  A    between atoms: _205  and  _206
REMARK   90  A    between atoms: _206  and  _207
REMARK   91  A    between atoms: _207  and  _208
REMARK   92  A    between atoms: _212  and  _214
REMARK   93  A    between atoms: _214  and  _215
REMARK   94  A    between atoms: _214  and  _217
REMARK   95  A    between atoms: _217  and  _218
REMARK   96  A    between atoms: _218  and  _219
REMARK   97  A    between atoms: _219  and  MN_331
REMARK   98  A    between atoms: _221  and  _223
REMARK   99  A    between atoms: _223  and  _224
REMARK  100  A    between atoms: _223  and  _226
REMARK  101  A    between atoms: _226  and  _227
REMARK  102  A    between atoms: _230  and  _232
REMARK  103  A    between atoms: _232  and  _233
REMARK  104  A    between atoms: _232  and  _235
REMARK  105  A    between atoms: _235  and  _236
REMARK  106  A    between atoms: _236  and  _237
REMARK  107  A    between atoms: _240  and  _242
REMARK  108  A    between atoms: _242  and  _243
REMARK  109  A    between atoms: _242  and  _245
REMARK  110  A    between atoms: _245  and  _246
REMARK  111  A    between atoms: _252  and  _254
REMARK  112  A    between atoms: _254  and  _255
REMARK  113  A    between atoms: _257  and  _259
REMARK  114  A    between atoms: _259  and  _260
REMARK  115  A    between atoms: _259  and  _262
REMARK  116  A    between atoms: _265  and  _267
REMARK  117  A    between atoms: _267  and  _268
REMARK  118  A    between atoms: _267  and  _270
REMARK  119  A    between atoms: _270  and  _271
REMARK  120  A    between atoms: _276  and  _278
REMARK  121  A    between atoms: _278  and  _279
REMARK  122  A    between atoms: _278  and  _281
REMARK  123  A    between atoms: _281  and  _282
REMARK  124  A    between atoms: _287  and  _289
REMARK  125  A    between atoms: _289  and  _290
REMARK  126  A    between atoms: _289  and  _292
REMARK  127  A    between atoms: _292  and  _293
REMARK  128  A    between atoms: _295  and  _297
REMARK  129  A    between atoms: _297  and  _298
REMARK  130  A    between atoms: _297  and  _300
REMARK  131  A    between atoms: _300  and  _301
REMARK  132  A    between atoms: _301  and  _302
REMARK  133  A    between atoms: _302  and  _303
REMARK  134  A    between atoms: _313  and  _314
REMARK  135  A    between atoms: _319  and  _321
REMARK  136  A    between atoms: _321  and  _322
REMARK  137  A    between atoms: _321  and  _324
REMARK  138  A    between atoms: _324  and  _325
REMARK                            x       y       z     vdW  Elec       q    Type
REMARK                         _______ _______ _______ _____ _____    ______ ____
ROOT
ATOM      1  O   HOH     1       2.187   1.321  11.933  0.00  0.00    +0.000 OA
ENDROOT
TORSDOF 0
REMARK  Name = ../refined-set-2016/2rke/2rke_pocket.pdb
REMARK  138 active torsions:
REMARK  status: ('A' for Active; 'I' for Inactive)
REMARK    1  A    between atoms: _1  and  _3
REMARK    2  A    between atoms: _3  and  _4
REMARK    3  A    between atoms: _3  and  _6
REMARK    4  A    between atoms: _6  and  _7
REMARK    5  A    between atoms: _10  and  _12
REMARK    6  A    between atoms: _12  and  _13
REMARK    7  A    between atoms: _12  and  _15
REMARK    8  A    between atoms: _18  and  _20
REMARK    9  A    between atoms: _20  and  _21
REMARK   10  A    between atoms: _24  and  _26
REMARK   11  A    between atoms: _26  and  _27
REMARK   12  A    between atoms: _26  and  _29
REMARK   13  A    between atoms: _29  and  _30
REMARK   14  A    between atoms: _30  and  _31
REMARK   15  A    between atoms: _31  and  _32
REMARK   16  A    between atoms: _41  and  _43
REMARK   17  A    between atoms: _43  and  _44
REMARK   18  A    between atoms: _43  and  _46
REMARK   19  A    between atoms: _46  and  _47
REMARK   20  A    between atoms: _50  and  _52
REMARK   21  A    between atoms: _52  and  _53
REMARK   22  A    between atoms: _52  and  _55
REMARK   23  A    between atoms: _55  and  _56
REMARK   24  A    between atoms: _61  and  _62
REMARK   25  A    between atoms: _64  and  _66
REMARK   26  A    between atoms: _66  and  _67
REMARK   27  A    between atoms: _66  and  _69
REMARK   28  A    between atoms: _69  and  _70
REMARK   29  A    between atoms: _70  and  _71
REMARK   30  A    between atoms: _73  and  _75
REMARK   31  A    between atoms: _75  and  _76
REMARK   32  A    between atoms: _75  and  _78
REMARK   33  A    between atoms: _78  and  _79
REMARK   34  A    between atoms: _81  and  _83
REMARK   35  A    between atoms: _83  and  _84
REMARK   36  A    between atoms: _86  and  _88
REMARK   37  A    between atoms: _88  and  _89
REMARK   38  A    between atoms: _88  and  _91
REMARK   39  A    between atoms: _91  and  _92
REMARK   40  A    between atoms: _97  and  _98
REMARK   41  A    between atoms: _100  and  _102
REMARK   42  A    between atoms: _102  and  _103
REMARK   43  A    between atoms: _105  and  _107
REMARK   44  A    between atoms: _107  and  _108
REMARK   45  A    between atoms: _110  and  _112
REMARK   46  A    between atoms: _112  and  _113
REMARK   47  A    between atoms: _112  and  _115
REMARK   48  A    between atoms: _115  and  _116
REMARK   49  A    between atoms: _121  and  _123
REMARK   50  A    between atoms: _123  and  _124
REMARK   51  A    between atoms: _123  and  _126
REMARK   52  A    between atoms: _126  and  _127
REMARK   53  A    between atoms: _129  and  _131
REMARK   54  A    between atoms: _131  and  _132
REMARK   55  A    between atoms: _131  and  _134
REMARK   56  A    between atoms: _134  and  _135
REMARK   57  A    between atoms: _138  and  _140
REMARK   58  A    between atoms: _140  and  _141
REMARK   59  A    between atoms: _140  and  _143
REMARK   60  A    between atoms: _143  and  _144
REMARK   61  A    between atoms: _144  and  _145
REMARK   62  A    between atoms: _145  and  _146
REMARK   63  A    between atoms: _146  and  _147
REMARK   64  A    between atoms: _151  and  _153
REMARK   65  A    between atoms: _153  and  _154
REMARK   66  A    between atoms: _153  and  _156
REMARK   67  A    between atoms: _156  and  _157
REMARK   68  A    between atoms: _157  and  _158
REMARK   69  A    between atoms: _158  and  _159
REMARK   70  A    between atoms: _159  and  _160
REMARK   71  A    between atoms: _164  and  _166
REMARK   72  A    between atoms: _166  and  _167
REMARK   73  A    between atoms: _166  and  _169
REMARK   74  A    between atoms: _171  and  _173
REMARK   75  A    between atoms: _173  and  _174
REMARK   76  A    between atoms: _173  and  _176
REMARK   77  A    between atoms: _176  and  _177
REMARK   78  A    between atoms: _177  and  _178
REMARK   79  A    between atoms: _178  and  _179
REMARK   80  A    between atoms: _188  and  _190
REMARK   81  A    between atoms: _190  and  _191
REMARK   82  A    between atoms: _190  and  _193
REMARK   83  A    between atoms: _193  and  _194
REMARK   84  A    between atoms: _198  and  MN_331
REMARK   85  A    between atoms: _199  and  _201
REMARK   86  A    between atoms: _201  and  _202
REMARK   87  A    between atoms: _201  and  _204
REMARK   88  A    between atoms: _204  and  _205
REMARK   89  A    between atoms: _205  and  _206
REMARK   90  A    between atoms: _206  and  _207
REMARK   91  A    between atoms: _207  and  _208
REMARK   92  A    between atoms: _212  and  _214
REMARK   93  A    between atoms: _214  and  _215
REMARK   94  A    between atoms: _214  and  _217
REMARK   95  A    between atoms: _217  and  _218
REMARK   96  A    between atoms: _218  and  _219
REMARK   97  A    between atoms: _219  and  MN_331
REMARK   98  A    between atoms: _221  and  _223
REMARK   99  A    between atoms: _223  and  _224
REMARK  100  A    between atoms: _223  and  _226
REMARK  101  A    between atoms: _226  and  _227
REMARK  102  A    between atoms: _230  and  _232
REMARK  103  A    between atoms: _232  and  _233
REMARK  104  A    between atoms: _232  and  _235
REMARK  105  A    between atoms: _235  and  _236
REMARK  106  A    between atoms: _236  and  _237
REMARK  107  A    between atoms: _240  and  _242
REMARK  108  A    between atoms: _242  and  _243
REMARK  109  A    between atoms: _242  and  _245
REMARK  110  A    between atoms: _245  and  _246
REMARK  111  A    between atoms: _252  and  _254
REMARK  112  A    between atoms: _254  and  _255
REMARK  113  A    between atoms: _257  and  _259
REMARK  114  A    between atoms: _259  and  _260
REMARK  115  A    between atoms: _259  and  _262
REMARK  116  A    between atoms: _265  and  _267
REMARK  117  A    between atoms: _267  and  _268
REMARK  118  A    between atoms: _267  and  _270
REMARK  119  A    between atoms: _270  and  _271
REMARK  120  A    between atoms: _276  and  _278
REMARK  121  A    between atoms: _278  and  _279
REMARK  122  A    between atoms: _278  and  _281
REMARK  123  A    between atoms: _281  and  _282
REMARK  124  A    between atoms: _287  and  _289
REMARK  125  A    between atoms: _289  and  _290
REMARK  126  A    between atoms: _289  and  _292
REMARK  127  A    between atoms: _292  and  _293
REMARK  128  A    between atoms: _295  and  _297
REMARK  129  A    between atoms: _297  and  _298
REMARK  130  A    between atoms: _297  and  _300
REMARK  131  A    between atoms: _300  and  _301
REMARK  132  A    between atoms: _301  and  _302
REMARK  133  A    between atoms: _302  and  _303
REMARK  134  A    between atoms: _313  and  _314
REMARK  135  A    between atoms: _319  and  _321
REMARK  136  A    between atoms: _321  and  _322
REMARK  137  A    between atoms: _321  and  _324
REMARK  138  A    between atoms: _324  and  _325
REMARK                            x       y       z     vdW  Elec       q    Type
REMARK                         _______ _______ _______ _____ _____    ______ ____
ROOT
ATOM      1  O   HOH     1       9.007  -8.144  14.141  0.00  0.00    +0.000 OA
ENDROOT
TORSDOF 0
REMARK  Name = ../refined-set-2016/2rke/2rke_pocket.pdb
REMARK  138 active torsions:
REMARK  status: ('A' for Active; 'I' for Inactive)
REMARK    1  A    between atoms: _1  and  _3
REMARK    2  A    between atoms: _3  and  _4
REMARK    3  A    between atoms: _3  and  _6
REMARK    4  A    between atoms: _6  and  _7
REMARK    5  A    between atoms: _10  and  _12
REMARK    6  A    between atoms: _12  and  _13
REMARK    7  A    between atoms: _12  and  _15
REMARK    8  A    between atoms: _18  and  _20
REMARK    9  A    between atoms: _20  and  _21
REMARK   10  A    between atoms: _24  and  _26
REMARK   11  A    between atoms: _26  and  _27
REMARK   12  A    between atoms: _26  and  _29
REMARK   13  A    between atoms: _29  and  _30
REMARK   14  A    between atoms: _30  and  _31
REMARK   15  A    between atoms: _31  and  _32
REMARK   16  A    between atoms: _41  and  _43
REMARK   17  A    between atoms: _43  and  _44
REMARK   18  A    between atoms: _43  and  _46
REMARK   19  A    between atoms: _46  and  _47
REMARK   20  A    between atoms: _50  and  _52
REMARK   21  A    between atoms: _52  and  _53
REMARK   22  A    between atoms: _52  and  _55
REMARK   23  A    between atoms: _55  and  _56
REMARK   24  A    between atoms: _61  and  _62
REMARK   25  A    between atoms: _64  and  _66
REMARK   26  A    between atoms: _66  and  _67
REMARK   27  A    between atoms: _66  and  _69
REMARK   28  A    between atoms: _69  and  _70
REMARK   29  A    between atoms: _70  and  _71
REMARK   30  A    between atoms: _73  and  _75
REMARK   31  A    between atoms: _75  and  _76
REMARK   32  A    between atoms: _75  and  _78
REMARK   33  A    between atoms: _78  and  _79
REMARK   34  A    between atoms: _81  and  _83
REMARK   35  A    between atoms: _83  and  _84
REMARK   36  A    between atoms: _86  and  _88
REMARK   37  A    between atoms: _88  and  _89
REMARK   38  A    between atoms: _88  and  _91
REMARK   39  A    between atoms: _91  and  _92
REMARK   40  A    between atoms: _97  and  _98
REMARK   41  A    between atoms: _100  and  _102
REMARK   42  A    between atoms: _102  and  _103
REMARK   43  A    between atoms: _105  and  _107
REMARK   44  A    between atoms: _107  and  _108
REMARK   45  A    between atoms: _110  and  _112
REMARK   46  A    between atoms: _112  and  _113
REMARK   47  A    between atoms: _112  and  _115
REMARK   48  A    between atoms: _115  and  _116
REMARK   49  A    between atoms: _121  and  _123
REMARK   50  A    between atoms: _123  and  _124
REMARK   51  A    between atoms: _123  and  _126
REMARK   52  A    between atoms: _126  and  _127
REMARK   53  A    between atoms: _129  and  _131
REMARK   54  A    between atoms: _131  and  _132
REMARK   55  A    between atoms: _131  and  _134
REMARK   56  A    between atoms: _134  and  _135
REMARK   57  A    between atoms: _138  and  _140
REMARK   58  A    between atoms: _140  and  _141
REMARK   59  A    between atoms: _140  and  _143
REMARK   60  A    between atoms: _143  and  _144
REMARK   61  A    between atoms: _144  and  _145
REMARK   62  A    between atoms: _145  and  _146
REMARK   63  A    between atoms: _146  and  _147
REMARK   64  A    between atoms: _151  and  _153
REMARK   65  A    between atoms: _153  and  _154
REMARK   66  A    between atoms: _153  and  _156
REMARK   67  A    between atoms: _156  and  _157
REMARK   68  A    between atoms: _157  and  _158
REMARK   69  A    between atoms: _158  and  _159
REMARK   70  A    between atoms: _159  and  _160
REMARK   71  A    between atoms: _164  and  _166
REMARK   72  A    between atoms: _166  and  _167
REMARK   73  A    between atoms: _166  and  _169
REMARK   74  A    between atoms: _171  and  _173
REMARK   75  A    between atoms: _173  and  _174
REMARK   76  A    between atoms: _173  and  _176
REMARK   77  A    between atoms: _176  and  _177
REMARK   78  A    between atoms: _177  and  _178
REMARK   79  A    between atoms: _178  and  _179
REMARK   80  A    between atoms: _188  and  _190
REMARK   81  A    between atoms: _190  and  _191
REMARK   82  A    between atoms: _190  and  _193
REMARK   83  A    between atoms: _193  and  _194
REMARK   84  A    between atoms: _198  and  MN_331
REMARK   85  A    between atoms: _199  and  _201
REMARK   86  A    between atoms: _201  and  _202
REMARK   87  A    between atoms: _201  and  _204
REMARK   88  A    between atoms: _204  and  _205
REMARK   89  A    between atoms: _205  and  _206
REMARK   90  A    between atoms: _206  and  _207
REMARK   91  A    between atoms: _207  and  _208
REMARK   92  A    between atoms: _212  and  _214
REMARK   93  A    between atoms: _214  and  _215
REMARK   94  A    between atoms: _214  and  _217
REMARK   95  A    between atoms: _217  and  _218
REMARK   96  A    between atoms: _218  and  _219
REMARK   97  A    between atoms: _219  and  MN_331
REMARK   98  A    between atoms: _221  and  _223
REMARK   99  A    between atoms: _223  and  _224
REMARK  100  A    between atoms: _223  and  _226
REMARK  101  A    between atoms: _226  and  _227
REMARK  102  A    between atoms: _230  and  _232
REMARK  103  A    between atoms: _232  and  _233
REMARK  104  A    between atoms: _232  and  _235
REMARK  105  A    between atoms: _235  and  _236
REMARK  106  A    between atoms: _236  and  _237
REMARK  107  A    between atoms: _240  and  _242
REMARK  108  A    between atoms: _242  and  _243
REMARK  109  A    between atoms: _242  and  _245
REMARK  110  A    between atoms: _245  and  _246
REMARK  111  A    between atoms: _252  and  _254
REMARK  112  A    between atoms: _254  and  _255
REMARK  113  A    between atoms: _257  and  _259
REMARK  114  A    between atoms: _259  and  _260
REMARK  115  A    between atoms: _259  and  _262
REMARK  116  A    between atoms: _265  and  _267
REMARK  117  A    between atoms: _267  and  _268
REMARK  118  A    between atoms: _267  and  _270
REMARK  119  A    between atoms: _270  and  _271
REMARK  120  A    between atoms: _276  and  _278
REMARK  121  A    between atoms: _278  and  _279
REMARK  122  A    between atoms: _278  and  _281
REMARK  123  A    between atoms: _281  and  _282
REMARK  124  A    between atoms: _287  and  _289
REMARK  125  A    between atoms: _289  and  _290
REMARK  126  A    between atoms: _289  and  _292
REMARK  127  A    between atoms: _292  and  _293
REMARK  128  A    between atoms: _295  and  _297
REMARK  129  A    between atoms: _297  and  _298
REMARK  130  A    between atoms: _297  and  _300
REMARK  131  A    between atoms: _300  and  _301
REMARK  132  A    between atoms: _301  and  _302
REMARK  133  A    between atoms: _302  and  _303
REMARK  134  A    between atoms: _313  and  _314
REMARK  135  A    between atoms: _319  and  _321
REMARK  136  A    between atoms: _321  and  _322
REMARK  137  A    between atoms: _321  and  _324
REMARK  138  A    between atoms: _324  and  _325
REMARK                            x       y       z     vdW  Elec       q    Type
REMARK                         _______ _______ _______ _____ _____    ______ ____
ROOT
ATOM      1  O   HOH     1      12.010  -8.340  10.612  0.00  0.00    +0.000 OA
ENDROOT
TORSDOF 0
REMARK  Name = ../refined-set-2016/2rke/2rke_pocket.pdb
REMARK  138 active torsions:
REMARK  status: ('A' for Active; 'I' for Inactive)
REMARK    1  A    between atoms: _1  and  _3
REMARK    2  A    between atoms: _3  and  _4
REMARK    3  A    between atoms: _3  and  _6
REMARK    4  A    between atoms: _6  and  _7
REMARK    5  A    between atoms: _10  and  _12
REMARK    6  A    between atoms: _12  and  _13
REMARK    7  A    between atoms: _12  and  _15
REMARK    8  A    between atoms: _18  and  _20
REMARK    9  A    between atoms: _20  and  _21
REMARK   10  A    between atoms: _24  and  _26
REMARK   11  A    between atoms: _26  and  _27
REMARK   12  A    between atoms: _26  and  _29
REMARK   13  A    between atoms: _29  and  _30
REMARK   14  A    between atoms: _30  and  _31
REMARK   15  A    between atoms: _31  and  _32
REMARK   16  A    between atoms: _41  and  _43
REMARK   17  A    between atoms: _43  and  _44
REMARK   18  A    between atoms: _43  and  _46
REMARK   19  A    between atoms: _46  and  _47
REMARK   20  A    between atoms: _50  and  _52
REMARK   21  A    between atoms: _52  and  _53
REMARK   22  A    between atoms: _52  and  _55
REMARK   23  A    between atoms: _55  and  _56
REMARK   24  A    between atoms: _61  and  _62
REMARK   25  A    between atoms: _64  and  _66
REMARK   26  A    between atoms: _66  and  _67
REMARK   27  A    between atoms: _66  and  _69
REMARK   28  A    between atoms: _69  and  _70
REMARK   29  A    between atoms: _70  and  _71
REMARK   30  A    between atoms: _73  and  _75
REMARK   31  A    between atoms: _75  and  _76
REMARK   32  A    between atoms: _75  and  _78
REMARK   33  A    between atoms: _78  and  _79
REMARK   34  A    between atoms: _81  and  _83
REMARK   35  A    between atoms: _83  and  _84
REMARK   36  A    between atoms: _86  and  _88
REMARK   37  A    between atoms: _88  and  _89
REMARK   38  A    between atoms: _88  and  _91
REMARK   39  A    between atoms: _91  and  _92
REMARK   40  A    between atoms: _97  and  _98
REMARK   41  A    between atoms: _100  and  _102
REMARK   42  A    between atoms: _102  and  _103
REMARK   43  A    between atoms: _105  and  _107
REMARK   44  A    between atoms: _107  and  _108
REMARK   45  A    between atoms: _110  and  _112
REMARK   46  A    between atoms: _112  and  _113
REMARK   47  A    between atoms: _112  and  _115
REMARK   48  A    between atoms: _115  and  _116
REMARK   49  A    between atoms: _121  and  _123
REMARK   50  A    between atoms: _123  and  _124
REMARK   51  A    between atoms: _123  and  _126
REMARK   52  A    between atoms: _126  and  _127
REMARK   53  A    between atoms: _129  and  _131
REMARK   54  A    between atoms: _131  and  _132
REMARK   55  A    between atoms: _131  and  _134
REMARK   56  A    between atoms: _134  and  _135
REMARK   57  A    between atoms: _138  and  _140
REMARK   58  A    between atoms: _140  and  _141
REMARK   59  A    between atoms: _140  and  _143
REMARK   60  A    between atoms: _143  and  _144
REMARK   61  A    between atoms: _144  and  _145
REMARK   62  A    between atoms: _145  and  _146
REMARK   63  A    between atoms: _146  and  _147
REMARK   64  A    between atoms: _151  and  _153
REMARK   65  A    between atoms: _153  and  _154
REMARK   66  A    between atoms: _153  and  _156
REMARK   67  A    between atoms: _156  and  _157
REMARK   68  A    between atoms: _157  and  _158
REMARK   69  A    between atoms: _158  and  _159
REMARK   70  A    between atoms: _159  and  _160
REMARK   71  A    between atoms: _164  and  _166
REMARK   72  A    between atoms: _166  and  _167
REMARK   73  A    between atoms: _166  and  _169
REMARK   74  A    between atoms: _171  and  _173
REMARK   75  A    between atoms: _173  and  _174
REMARK   76  A    between atoms: _173  and  _176
REMARK   77  A    between atoms: _176  and  _177
REMARK   78  A    between atoms: _177  and  _178
REMARK   79  A    between atoms: _178  and  _179
REMARK   80  A    between atoms: _188  and  _190
REMARK   81  A    between atoms: _190  and  _191
REMARK   82  A    between atoms: _190  and  _193
REMARK   83  A    between atoms: _193  and  _194
REMARK   84  A    between atoms: _198  and  MN_331
REMARK   85  A    between atoms: _199  and  _201
REMARK   86  A    between atoms: _201  and  _202
REMARK   87  A    between atoms: _201  and  _204
REMARK   88  A    between atoms: _204  and  _205
REMARK   89  A    between atoms: _205  and  _206
REMARK   90  A    between atoms: _206  and  _207
REMARK   91  A    between atoms: _207  and  _208
REMARK   92  A    between atoms: _212  and  _214
REMARK   93  A    between atoms: _214  and  _215
REMARK   94  A    between atoms: _214  and  _217
REMARK   95  A    between atoms: _217  and  _218
REMARK   96  A    between atoms: _218  and  _219
REMARK   97  A    between atoms: _219  and  MN_331
REMARK   98  A    between atoms: _221  and  _223
REMARK   99  A    between atoms: _223  and  _224
REMARK  100  A    between atoms: _223  and  _226
REMARK  101  A    between atoms: _226  and  _227
REMARK  102  A    between atoms: _230  and  _232
REMARK  103  A    between atoms: _232  and  _233
REMARK  104  A    between atoms: _232  and  _235
REMARK  105  A    between atoms: _235  and  _236
REMARK  106  A    between atoms: _236  and  _237
REMARK  107  A    between atoms: _240  and  _242
REMARK  108  A    between atoms: _242  and  _243
REMARK  109  A    between atoms: _242  and  _245
REMARK  110  A    between atoms: _245  and  _246
REMARK  111  A    between atoms: _252  and  _254
REMARK  112  A    between atoms: _254  and  _255
REMARK  113  A    between atoms: _257  and  _259
REMARK  114  A    between atoms: _259  and  _260
REMARK  115  A    between atoms: _259  and  _262
REMARK  116  A    between atoms: _265  and  _267
REMARK  117  A    between atoms: _267  and  _268
REMARK  118  A    between atoms: _267  and  _270
REMARK  119  A    between atoms: _270  and  _271
REMARK  120  A    between atoms: _276  and  _278
REMARK  121  A    between atoms: _278  and  _279
REMARK  122  A    between atoms: _278  and  _281
REMARK  123  A    between atoms: _281  and  _282
REMARK  124  A    between atoms: _287  and  _289
REMARK  125  A    between atoms: _289  and  _290
REMARK  126  A    between atoms: _289  and  _292
REMARK  127  A    between atoms: _292  and  _293
REMARK  128  A    between atoms: _295  and  _297
REMARK  129  A    between atoms: _297  and  _298
REMARK  130  A    between atoms: _297  and  _300
REMARK  131  A    between atoms: _300  and  _301
REMARK  132  A    between atoms: _301  and  _302
REMARK  133  A    between atoms: _302  and  _303
REMARK  134  A    between atoms: _313  and  _314
REMARK  135  A    between atoms: _319  and  _321
REMARK  136  A    between atoms: _321  and  _322
REMARK  137  A    between atoms: _321  and  _324
REMARK  138  A    between atoms: _324  and  _325
REMARK                            x       y       z     vdW  Elec       q    Type
REMARK                         _______ _______ _______ _____ _____    ______ ____
ROOT
ATOM      1  O   HOH     1       7.695  -1.390   5.216  0.00  0.00    +0.000 OA
ENDROOT
TORSDOF 0
REMARK  Name = ../refined-set-2016/2rke/2rke_pocket.pdb
REMARK  138 active torsions:
REMARK  status: ('A' for Active; 'I' for Inactive)
REMARK    1  A    between atoms: _1  and  _3
REMARK    2  A    between atoms: _3  and  _4
REMARK    3  A    between atoms: _3  and  _6
REMARK    4  A    between atoms: _6  and  _7
REMARK    5  A    between atoms: _10  and  _12
REMARK    6  A    between atoms: _12  and  _13
REMARK    7  A    between atoms: _12  and  _15
REMARK    8  A    between atoms: _18  and  _20
REMARK    9  A    between atoms: _20  and  _21
REMARK   10  A    between atoms: _24  and  _26
REMARK   11  A    between atoms: _26  and  _27
REMARK   12  A    between atoms: _26  and  _29
REMARK   13  A    between atoms: _29  and  _30
REMARK   14  A    between atoms: _30  and  _31
REMARK   15  A    between atoms: _31  and  _32
REMARK   16  A    between atoms: _41  and  _43
REMARK   17  A    between atoms: _43  and  _44
REMARK   18  A    between atoms: _43  and  _46
REMARK   19  A    between atoms: _46  and  _47
REMARK   20  A    between atoms: _50  and  _52
REMARK   21  A    between atoms: _52  and  _53
REMARK   22  A    between atoms: _52  and  _55
REMARK   23  A    between atoms: _55  and  _56
REMARK   24  A    between atoms: _61  and  _62
REMARK   25  A    between atoms: _64  and  _66
REMARK   26  A    between atoms: _66  and  _67
REMARK   27  A    between atoms: _66  and  _69
REMARK   28  A    between atoms: _69  and  _70
REMARK   29  A    between atoms: _70  and  _71
REMARK   30  A    between atoms: _73  and  _75
REMARK   31  A    between atoms: _75  and  _76
REMARK   32  A    between atoms: _75  and  _78
REMARK   33  A    between atoms: _78  and  _79
REMARK   34  A    between atoms: _81  and  _83
REMARK   35  A    between atoms: _83  and  _84
REMARK   36  A    between atoms: _86  and  _88
REMARK   37  A    between atoms: _88  and  _89
REMARK   38  A    between atoms: _88  and  _91
REMARK   39  A    between atoms: _91  and  _92
REMARK   40  A    between atoms: _97  and  _98
REMARK   41  A    between atoms: _100  and  _102
REMARK   42  A    between atoms: _102  and  _103
REMARK   43  A    between atoms: _105  and  _107
REMARK   44  A    between atoms: _107  and  _108
REMARK   45  A    between atoms: _110  and  _112
REMARK   46  A    between atoms: _112  and  _113
REMARK   47  A    between atoms: _112  and  _115
REMARK   48  A    between atoms: _115  and  _116
REMARK   49  A    between atoms: _121  and  _123
REMARK   50  A    between atoms: _123  and  _124
REMARK   51  A    between atoms: _123  and  _126
REMARK   52  A    between atoms: _126  and  _127
REMARK   53  A    between atoms: _129  and  _131
REMARK   54  A    between atoms: _131  and  _132
REMARK   55  A    between atoms: _131  and  _134
REMARK   56  A    between atoms: _134  and  _135
REMARK   57  A    between atoms: _138  and  _140
REMARK   58  A    between atoms: _140  and  _141
REMARK   59  A    between atoms: _140  and  _143
REMARK   60  A    between atoms: _143  and  _144
REMARK   61  A    between atoms: _144  and  _145
REMARK   62  A    between atoms: _145  and  _146
REMARK   63  A    between atoms: _146  and  _147
REMARK   64  A    between atoms: _151  and  _153
REMARK   65  A    between atoms: _153  and  _154
REMARK   66  A    between atoms: _153  and  _156
REMARK   67  A    between atoms: _156  and  _157
REMARK   68  A    between atoms: _157  and  _158
REMARK   69  A    between atoms: _158  and  _159
REMARK   70  A    between atoms: _159  and  _160
REMARK   71  A    between atoms: _164  and  _166
REMARK   72  A    between atoms: _166  and  _167
REMARK   73  A    between atoms: _166  and  _169
REMARK   74  A    between atoms: _171  and  _173
REMARK   75  A    between atoms: _173  and  _174
REMARK   76  A    between atoms: _173  and  _176
REMARK   77  A    between atoms: _176  and  _177
REMARK   78  A    between atoms: _177  and  _178
REMARK   79  A    between atoms: _178  and  _179
REMARK   80  A    between atoms: _188  and  _190
REMARK   81  A    between atoms: _190  and  _191
REMARK   82  A    between atoms: _190  and  _193
REMARK   83  A    between atoms: _193  and  _194
REMARK   84  A    between atoms: _198  and  MN_331
REMARK   85  A    between atoms: _199  and  _201
REMARK   86  A    between atoms: _201  and  _202
REMARK   87  A    between atoms: _201  and  _204
REMARK   88  A    between atoms: _204  and  _205
REMARK   89  A    between atoms: _205  and  _206
REMARK   90  A    between atoms: _206  and  _207
REMARK   91  A    between atoms: _207  and  _208
REMARK   92  A    between atoms: _212  and  _214
REMARK   93  A    between atoms: _214  and  _215
REMARK   94  A    between atoms: _214  and  _217
REMARK   95  A    between atoms: _217  and  _218
REMARK   96  A    between atoms: _218  and  _219
REMARK   97  A    between atoms: _219  and  MN_331
REMARK   98  A    between atoms: _221  and  _223
REMARK   99  A    between atoms: _223  and  _224
REMARK  100  A    between atoms: _223  and  _226
REMARK  101  A    between atoms: _226  and  _227
REMARK  102  A    between atoms: _230  and  _232
REMARK  103  A    between atoms: _232  and  _233
REMARK  104  A    between atoms: _232  and  _235
REMARK  105  A    between atoms: _235  and  _236
REMARK  106  A    between atoms: _236  and  _237
REMARK  107  A    between atoms: _240  and  _242
REMARK  108  A    between atoms: _242  and  _243
REMARK  109  A    between atoms: _242  and  _245
REMARK  110  A    between atoms: _245  and  _246
REMARK  111  A    between atoms: _252  and  _254
REMARK  112  A    between atoms: _254  and  _255
REMARK  113  A    between atoms: _257  and  _259
REMARK  114  A    between atoms: _259  and  _260
REMARK  115  A    between atoms: _259  and  _262
REMARK  116  A    between atoms: _265  and  _267
REMARK  117  A    between atoms: _267  and  _268
REMARK  118  A    between atoms: _267  and  _270
REMARK  119  A    between atoms: _270  and  _271
REMARK  120  A    between atoms: _276  and  _278
REMARK  121  A    between atoms: _278  and  _279
REMARK  122  A    between atoms: _278  and  _281
REMARK  123  A    between atoms: _281  and  _282
REMARK  124  A    between atoms: _287  and  _289
REMARK  125  A    between atoms: _289  and  _290
REMARK  126  A    between atoms: _289  and  _292
REMARK  127  A    between atoms: _292  and  _293
REMARK  128  A    between atoms: _295  and  _297
REMARK  129  A    between atoms: _297  and  _298
REMARK  130  A    between atoms: _297  and  _300
REMARK  131  A    between atoms: _300  and  _301
REMARK  132  A    between atoms: _301  and  _302
REMARK  133  A    between atoms: _302  and  _303
REMARK  134  A    between atoms: _313  and  _314
REMARK  135  A    between atoms: _319  and  _321
REMARK  136  A    between atoms: _321  and  _322
REMARK  137  A    between atoms: _321  and  _324
REMARK  138  A    between atoms: _324  and  _325
REMARK                            x       y       z     vdW  Elec       q    Type
REMARK                         _______ _______ _______ _____ _____    ______ ____
ROOT
ATOM      1  O   HOH     1       7.549  -3.699   3.255  0.00  0.00    +0.000 OA
ENDROOT
TORSDOF 0
REMARK  Name = ../refined-set-2016/2rke/2rke_pocket.pdb
REMARK  138 active torsions:
REMARK  status: ('A' for Active; 'I' for Inactive)
REMARK    1  A    between atoms: _1  and  _3
REMARK    2  A    between atoms: _3  and  _4
REMARK    3  A    between atoms: _3  and  _6
REMARK    4  A    between atoms: _6  and  _7
REMARK    5  A    between atoms: _10  and  _12
REMARK    6  A    between atoms: _12  and  _13
REMARK    7  A    between atoms: _12  and  _15
REMARK    8  A    between atoms: _18  and  _20
REMARK    9  A    between atoms: _20  and  _21
REMARK   10  A    between atoms: _24  and  _26
REMARK   11  A    between atoms: _26  and  _27
REMARK   12  A    between atoms: _26  and  _29
REMARK   13  A    between atoms: _29  and  _30
REMARK   14  A    between atoms: _30  and  _31
REMARK   15  A    between atoms: _31  and  _32
REMARK   16  A    between atoms: _41  and  _43
REMARK   17  A    between atoms: _43  and  _44
REMARK   18  A    between atoms: _43  and  _46
REMARK   19  A    between atoms: _46  and  _47
REMARK   20  A    between atoms: _50  and  _52
REMARK   21  A    between atoms: _52  and  _53
REMARK   22  A    between atoms: _52  and  _55
REMARK   23  A    between atoms: _55  and  _56
REMARK   24  A    between atoms: _61  and  _62
REMARK   25  A    between atoms: _64  and  _66
REMARK   26  A    between atoms: _66  and  _67
REMARK   27  A    between atoms: _66  and  _69
REMARK   28  A    between atoms: _69  and  _70
REMARK   29  A    between atoms: _70  and  _71
REMARK   30  A    between atoms: _73  and  _75
REMARK   31  A    between atoms: _75  and  _76
REMARK   32  A    between atoms: _75  and  _78
REMARK   33  A    between atoms: _78  and  _79
REMARK   34  A    between atoms: _81  and  _83
REMARK   35  A    between atoms: _83  and  _84
REMARK   36  A    between atoms: _86  and  _88
REMARK   37  A    between atoms: _88  and  _89
REMARK   38  A    between atoms: _88  and  _91
REMARK   39  A    between atoms: _91  and  _92
REMARK   40  A    between atoms: _97  and  _98
REMARK   41  A    between atoms: _100  and  _102
REMARK   42  A    between atoms: _102  and  _103
REMARK   43  A    between atoms: _105  and  _107
REMARK   44  A    between atoms: _107  and  _108
REMARK   45  A    between atoms: _110  and  _112
REMARK   46  A    between atoms: _112  and  _113
REMARK   47  A    between atoms: _112  and  _115
REMARK   48  A    between atoms: _115  and  _116
REMARK   49  A    between atoms: _121  and  _123
REMARK   50  A    between atoms: _123  and  _124
REMARK   51  A    between atoms: _123  and  _126
REMARK   52  A    between atoms: _126  and  _127
REMARK   53  A    between atoms: _129  and  _131
REMARK   54  A    between atoms: _131  and  _132
REMARK   55  A    between atoms: _131  and  _134
REMARK   56  A    between atoms: _134  and  _135
REMARK   57  A    between atoms: _138  and  _140
REMARK   58  A    between atoms: _140  and  _141
REMARK   59  A    between atoms: _140  and  _143
REMARK   60  A    between atoms: _143  and  _144
REMARK   61  A    between atoms: _144  and  _145
REMARK   62  A    between atoms: _145  and  _146
REMARK   63  A    between atoms: _146  and  _147
REMARK   64  A    between atoms: _151  and  _153
REMARK   65  A    between atoms: _153  and  _154
REMARK   66  A    between atoms: _153  and  _156
REMARK   67  A    between atoms: _156  and  _157
REMARK   68  A    between atoms: _157  and  _158
REMARK   69  A    between atoms: _158  and  _159
REMARK   70  A    between atoms: _159  and  _160
REMARK   71  A    between atoms: _164  and  _166
REMARK   72  A    between atoms: _166  and  _167
REMARK   73  A    between atoms: _166  and  _169
REMARK   74  A    between atoms: _171  and  _173
REMARK   75  A    between atoms: _173  and  _174
REMARK   76  A    between atoms: _173  and  _176
REMARK   77  A    between atoms: _176  and  _177
REMARK   78  A    between atoms: _177  and  _178
REMARK   79  A    between atoms: _178  and  _179
REMARK   80  A    between atoms: _188  and  _190
REMARK   81  A    between atoms: _190  and  _191
REMARK   82  A    between atoms: _190  and  _193
REMARK   83  A    between atoms: _193  and  _194
REMARK   84  A    between atoms: _198  and  MN_331
REMARK   85  A    between atoms: _199  and  _201
REMARK   86  A    between atoms: _201  and  _202
REMARK   87  A    between atoms: _201  and  _204
REMARK   88  A    between atoms: _204  and  _205
REMARK   89  A    between atoms: _205  and  _206
REMARK   90  A    between atoms: _206  and  _207
REMARK   91  A    between atoms: _207  and  _208
REMARK   92  A    between atoms: _212  and  _214
REMARK   93  A    between atoms: _214  and  _215
REMARK   94  A    between atoms: _214  and  _217
REMARK   95  A    between atoms: _217  and  _218
REMARK   96  A    between atoms: _218  and  _219
REMARK   97  A    between atoms: _219  and  MN_331
REMARK   98  A    between atoms: _221  and  _223
REMARK   99  A    between atoms: _223  and  _224
REMARK  100  A    between atoms: _223  and  _226
REMARK  101  A    between atoms: _226  and  _227
REMARK  102  A    between atoms: _230  and  _232
REMARK  103  A    between atoms: _232  and  _233
REMARK  104  A    between atoms: _232  and  _235
REMARK  105  A    between atoms: _235  and  _236
REMARK  106  A    between atoms: _236  and  _237
REMARK  107  A    between atoms: _240  and  _242
REMARK  108  A    between atoms: _242  and  _243
REMARK  109  A    between atoms: _242  and  _245
REMARK  110  A    between atoms: _245  and  _246
REMARK  111  A    between atoms: _252  and  _254
REMARK  112  A    between atoms: _254  and  _255
REMARK  113  A    between atoms: _257  and  _259
REMARK  114  A    between atoms: _259  and  _260
REMARK  115  A    between atoms: _259  and  _262
REMARK  116  A    between atoms: _265  and  _267
REMARK  117  A    between atoms: _267  and  _268
REMARK  118  A    between atoms: _267  and  _270
REMARK  119  A    between atoms: _270  and  _271
REMARK  120  A    between atoms: _276  and  _278
REMARK  121  A    between atoms: _278  and  _279
REMARK  122  A    between atoms: _278  and  _281
REMARK  123  A    between atoms: _281  and  _282
REMARK  124  A    between atoms: _287  and  _289
REMARK  125  A    between atoms: _289  and  _290
REMARK  126  A    between atoms: _289  and  _292
REMARK  127  A    between atoms: _292  and  _293
REMARK  128  A    between atoms: _295  and  _297
REMARK  129  A    between atoms: _297  and  _298
REMARK  130  A    between atoms: _297  and  _300
REMARK  131  A    between atoms: _300  and  _301
REMARK  132  A    between atoms: _301  and  _302
REMARK  133  A    between atoms: _302  and  _303
REMARK  134  A    between atoms: _313  and  _314
REMARK  135  A    between atoms: _319  and  _321
REMARK  136  A    between atoms: _321  and  _322
REMARK  137  A    between atoms: _321  and  _324
REMARK  138  A    between atoms: _324  and  _325
REMARK                            x       y       z     vdW  Elec       q    Type
REMARK                         _______ _______ _______ _____ _____    ______ ____
ROOT
ATOM      1  O   HOH     1       6.429   0.132  11.060  0.00  0.00    +0.000 OA
ENDROOT
TORSDOF 0
REMARK  Name = ../refined-set-2016/2rke/2rke_pocket.pdb
REMARK  138 active torsions:
REMARK  status: ('A' for Active; 'I' for Inactive)
REMARK    1  A    between atoms: _1  and  _3
REMARK    2  A    between atoms: _3  and  _4
REMARK    3  A    between atoms: _3  and  _6
REMARK    4  A    between atoms: _6  and  _7
REMARK    5  A    between atoms: _10  and  _12
REMARK    6  A    between atoms: _12  and  _13
REMARK    7  A    between atoms: _12  and  _15
REMARK    8  A    between atoms: _18  and  _20
REMARK    9  A    between atoms: _20  and  _21
REMARK   10  A    between atoms: _24  and  _26
REMARK   11  A    between atoms: _26  and  _27
REMARK   12  A    between atoms: _26  and  _29
REMARK   13  A    between atoms: _29  and  _30
REMARK   14  A    between atoms: _30  and  _31
REMARK   15  A    between atoms: _31  and  _32
REMARK   16  A    between atoms: _41  and  _43
REMARK   17  A    between atoms: _43  and  _44
REMARK   18  A    between atoms: _43  and  _46
REMARK   19  A    between atoms: _46  and  _47
REMARK   20  A    between atoms: _50  and  _52
REMARK   21  A    between atoms: _52  and  _53
REMARK   22  A    between atoms: _52  and  _55
REMARK   23  A    between atoms: _55  and  _56
REMARK   24  A    between atoms: _61  and  _62
REMARK   25  A    between atoms: _64  and  _66
REMARK   26  A    between atoms: _66  and  _67
REMARK   27  A    between atoms: _66  and  _69
REMARK   28  A    between atoms: _69  and  _70
REMARK   29  A    between atoms: _70  and  _71
REMARK   30  A    between atoms: _73  and  _75
REMARK   31  A    between atoms: _75  and  _76
REMARK   32  A    between atoms: _75  and  _78
REMARK   33  A    between atoms: _78  and  _79
REMARK   34  A    between atoms: _81  and  _83
REMARK   35  A    between atoms: _83  and  _84
REMARK   36  A    between atoms: _86  and  _88
REMARK   37  A    between atoms: _88  and  _89
REMARK   38  A    between atoms: _88  and  _91
REMARK   39  A    between atoms: _91  and  _92
REMARK   40  A    between atoms: _97  and  _98
REMARK   41  A    between atoms: _100  and  _102
REMARK   42  A    between atoms: _102  and  _103
REMARK   43  A    between atoms: _105  and  _107
REMARK   44  A    between atoms: _107  and  _108
REMARK   45  A    between atoms: _110  and  _112
REMARK   46  A    between atoms: _112  and  _113
REMARK   47  A    between atoms: _112  and  _115
REMARK   48  A    between atoms: _115  and  _116
REMARK   49  A    between atoms: _121  and  _123
REMARK   50  A    between atoms: _123  and  _124
REMARK   51  A    between atoms: _123  and  _126
REMARK   52  A    between atoms: _126  and  _127
REMARK   53  A    between atoms: _129  and  _131
REMARK   54  A    between atoms: _131  and  _132
REMARK   55  A    between atoms: _131  and  _134
REMARK   56  A    between atoms: _134  and  _135
REMARK   57  A    between atoms: _138  and  _140
REMARK   58  A    between atoms: _140  and  _141
REMARK   59  A    between atoms: _140  and  _143
REMARK   60  A    between atoms: _143  and  _144
REMARK   61  A    between atoms: _144  and  _145
REMARK   62  A    between atoms: _145  and  _146
REMARK   63  A    between atoms: _146  and  _147
REMARK   64  A    between atoms: _151  and  _153
REMARK   65  A    between atoms: _153  and  _154
REMARK   66  A    between atoms: _153  and  _156
REMARK   67  A    between atoms: _156  and  _157
REMARK   68  A    between atoms: _157  and  _158
REMARK   69  A    between atoms: _158  and  _159
REMARK   70  A    between atoms: _159  and  _160
REMARK   71  A    between atoms: _164  and  _166
REMARK   72  A    between atoms: _166  and  _167
REMARK   73  A    between atoms: _166  and  _169
REMARK   74  A    between atoms: _171  and  _173
REMARK   75  A    between atoms: _173  and  _174
REMARK   76  A    between atoms: _173  and  _176
REMARK   77  A    between atoms: _176  and  _177
REMARK   78  A    between atoms: _177  and  _178
REMARK   79  A    between atoms: _178  and  _179
REMARK   80  A    between atoms: _188  and  _190
REMARK   81  A    between atoms: _190  and  _191
REMARK   82  A    between atoms: _190  and  _193
REMARK   83  A    between atoms: _193  and  _194
REMARK   84  A    between atoms: _198  and  MN_331
REMARK   85  A    between atoms: _199  and  _201
REMARK   86  A    between atoms: _201  and  _202
REMARK   87  A    between atoms: _201  and  _204
REMARK   88  A    between atoms: _204  and  _205
REMARK   89  A    between atoms: _205  and  _206
REMARK   90  A    between atoms: _206  and  _207
REMARK   91  A    between atoms: _207  and  _208
REMARK   92  A    between atoms: _212  and  _214
REMARK   93  A    between atoms: _214  and  _215
REMARK   94  A    between atoms: _214  and  _217
REMARK   95  A    between atoms: _217  and  _218
REMARK   96  A    between atoms: _218  and  _219
REMARK   97  A    between atoms: _219  and  MN_331
REMARK   98  A    between atoms: _221  and  _223
REMARK   99  A    between atoms: _223  and  _224
REMARK  100  A    between atoms: _223  and  _226
REMARK  101  A    between atoms: _226  and  _227
REMARK  102  A    between atoms: _230  and  _232
REMARK  103  A    between atoms: _232  and  _233
REMARK  104  A    between atoms: _232  and  _235
REMARK  105  A    between atoms: _235  and  _236
REMARK  106  A    between atoms: _236  and  _237
REMARK  107  A    between atoms: _240  and  _242
REMARK  108  A    between atoms: _242  and  _243
REMARK  109  A    between atoms: _242  and  _245
REMARK  110  A    between atoms: _245  and  _246
REMARK  111  A    between atoms: _252  and  _254
REMARK  112  A    between atoms: _254  and  _255
REMARK  113  A    between atoms: _257  and  _259
REMARK  114  A    between atoms: _259  and  _260
REMARK  115  A    between atoms: _259  and  _262
REMARK  116  A    between atoms: _265  and  _267
REMARK  117  A    between atoms: _267  and  _268
REMARK  118  A    between atoms: _267  and  _270
REMARK  119  A    between atoms: _270  and  _271
REMARK  120  A    between atoms: _276  and  _278
REMARK  121  A    between atoms: _278  and  _279
REMARK  122  A    between atoms: _278  and  _281
REMARK  123  A    between atoms: _281  and  _282
REMARK  124  A    between atoms: _287  and  _289
REMARK  125  A    between atoms: _289  and  _290
REMARK  126  A    between atoms: _289  and  _292
REMARK  127  A    between atoms: _292  and  _293
REMARK  128  A    between atoms: _295  and  _297
REMARK  129  A    between atoms: _297  and  _298
REMARK  130  A    between atoms: _297  and  _300
REMARK  131  A    between atoms: _300  and  _301
REMARK  132  A    between atoms: _301  and  _302
REMARK  133  A    between atoms: _302  and  _303
REMARK  134  A    between atoms: _313  and  _314
REMARK  135  A    between atoms: _319  and  _321
REMARK  136  A    between atoms: _321  and  _322
REMARK  137  A    between atoms: _321  and  _324
REMARK  138  A    between atoms: _324  and  _325
REMARK                            x       y       z     vdW  Elec       q    Type
REMARK                         _______ _______ _______ _____ _____    ______ ____
ROOT
ATOM      1  O   HOH     1       1.810  -2.846  11.164  0.00  0.00    +0.000 OA
ENDROOT
TORSDOF 0
REMARK  Name = ../refined-set-2016/2rke/2rke_pocket.pdb
REMARK  138 active torsions:
REMARK  status: ('A' for Active; 'I' for Inactive)
REMARK    1  A    between atoms: _1  and  _3
REMARK    2  A    between atoms: _3  and  _4
REMARK    3  A    between atoms: _3  and  _6
REMARK    4  A    between atoms: _6  and  _7
REMARK    5  A    between atoms: _10  and  _12
REMARK    6  A    between atoms: _12  and  _13
REMARK    7  A    between atoms: _12  and  _15
REMARK    8  A    between atoms: _18  and  _20
REMARK    9  A    between atoms: _20  and  _21
REMARK   10  A    between atoms: _24  and  _26
REMARK   11  A    between atoms: _26  and  _27
REMARK   12  A    between atoms: _26  and  _29
REMARK   13  A    between atoms: _29  and  _30
REMARK   14  A    between atoms: _30  and  _31
REMARK   15  A    between atoms: _31  and  _32
REMARK   16  A    between atoms: _41  and  _43
REMARK   17  A    between atoms: _43  and  _44
REMARK   18  A    between atoms: _43  and  _46
REMARK   19  A    between atoms: _46  and  _47
REMARK   20  A    between atoms: _50  and  _52
REMARK   21  A    between atoms: _52  and  _53
REMARK   22  A    between atoms: _52  and  _55
REMARK   23  A    between atoms: _55  and  _56
REMARK   24  A    between atoms: _61  and  _62
REMARK   25  A    between atoms: _64  and  _66
REMARK   26  A    between atoms: _66  and  _67
REMARK   27  A    between atoms: _66  and  _69
REMARK   28  A    between atoms: _69  and  _70
REMARK   29  A    between atoms: _70  and  _71
REMARK   30  A    between atoms: _73  and  _75
REMARK   31  A    between atoms: _75  and  _76
REMARK   32  A    between atoms: _75  and  _78
REMARK   33  A    between atoms: _78  and  _79
REMARK   34  A    between atoms: _81  and  _83
REMARK   35  A    between atoms: _83  and  _84
REMARK   36  A    between atoms: _86  and  _88
REMARK   37  A    between atoms: _88  and  _89
REMARK   38  A    between atoms: _88  and  _91
REMARK   39  A    between atoms: _91  and  _92
REMARK   40  A    between atoms: _97  and  _98
REMARK   41  A    between atoms: _100  and  _102
REMARK   42  A    between atoms: _102  and  _103
REMARK   43  A    between atoms: _105  and  _107
REMARK   44  A    between atoms: _107  and  _108
REMARK   45  A    between atoms: _110  and  _112
REMARK   46  A    between atoms: _112  and  _113
REMARK   47  A    between atoms: _112  and  _115
REMARK   48  A    between atoms: _115  and  _116
REMARK   49  A    between atoms: _121  and  _123
REMARK   50  A    between atoms: _123  and  _124
REMARK   51  A    between atoms: _123  and  _126
REMARK   52  A    between atoms: _126  and  _127
REMARK   53  A    between atoms: _129  and  _131
REMARK   54  A    between atoms: _131  and  _132
REMARK   55  A    between atoms: _131  and  _134
REMARK   56  A    between atoms: _134  and  _135
REMARK   57  A    between atoms: _138  and  _140
REMARK   58  A    between atoms: _140  and  _141
REMARK   59  A    between atoms: _140  and  _143
REMARK   60  A    between atoms: _143  and  _144
REMARK   61  A    between atoms: _144  and  _145
REMARK   62  A    between atoms: _145  and  _146
REMARK   63  A    between atoms: _146  and  _147
REMARK   64  A    between atoms: _151  and  _153
REMARK   65  A    between atoms: _153  and  _154
REMARK   66  A    between atoms: _153  and  _156
REMARK   67  A    between atoms: _156  and  _157
REMARK   68  A    between atoms: _157  and  _158
REMARK   69  A    between atoms: _158  and  _159
REMARK   70  A    between atoms: _159  and  _160
REMARK   71  A    between atoms: _164  and  _166
REMARK   72  A    between atoms: _166  and  _167
REMARK   73  A    between atoms: _166  and  _169
REMARK   74  A    between atoms: _171  and  _173
REMARK   75  A    between atoms: _173  and  _174
REMARK   76  A    between atoms: _173  and  _176
REMARK   77  A    between atoms: _176  and  _177
REMARK   78  A    between atoms: _177  and  _178
REMARK   79  A    between atoms: _178  and  _179
REMARK   80  A    between atoms: _188  and  _190
REMARK   81  A    between atoms: _190  and  _191
REMARK   82  A    between atoms: _190  and  _193
REMARK   83  A    between atoms: _193  and  _194
REMARK   84  A    between atoms: _198  and  MN_331
REMARK   85  A    between atoms: _199  and  _201
REMARK   86  A    between atoms: _201  and  _202
REMARK   87  A    between atoms: _201  and  _204
REMARK   88  A    between atoms: _204  and  _205
REMARK   89  A    between atoms: _205  and  _206
REMARK   90  A    between atoms: _206  and  _207
REMARK   91  A    between atoms: _207  and  _208
REMARK   92  A    between atoms: _212  and  _214
REMARK   93  A    between atoms: _214  and  _215
REMARK   94  A    between atoms: _214  and  _217
REMARK   95  A    between atoms: _217  and  _218
REMARK   96  A    between atoms: _218  and  _219
REMARK   97  A    between atoms: _219  and  MN_331
REMARK   98  A    between atoms: _221  and  _223
REMARK   99  A    between atoms: _223  and  _224
REMARK  100  A    between atoms: _223  and  _226
REMARK  101  A    between atoms: _226  and  _227
REMARK  102  A    between atoms: _230  and  _232
REMARK  103  A    between atoms: _232  and  _233
REMARK  104  A    between atoms: _232  and  _235
REMARK  105  A    between atoms: _235  and  _236
REMARK  106  A    between atoms: _236  and  _237
REMARK  107  A    between atoms: _240  and  _242
REMARK  108  A    between atoms: _242  and  _243
REMARK  109  A    between atoms: _242  and  _245
REMARK  110  A    between atoms: _245  and  _246
REMARK  111  A    between atoms: _252  and  _254
REMARK  112  A    between atoms: _254  and  _255
REMARK  113  A    between atoms: _257  and  _259
REMARK  114  A    between atoms: _259  and  _260
REMARK  115  A    between atoms: _259  and  _262
REMARK  116  A    between atoms: _265  and  _267
REMARK  117  A    between atoms: _267  and  _268
REMARK  118  A    between atoms: _267  and  _270
REMARK  119  A    between atoms: _270  and  _271
REMARK  120  A    between atoms: _276  and  _278
REMARK  121  A    between atoms: _278  and  _279
REMARK  122  A    between atoms: _278  and  _281
REMARK  123  A    between atoms: _281  and  _282
REMARK  124  A    between atoms: _287  and  _289
REMARK  125  A    between atoms: _289  and  _290
REMARK  126  A    between atoms: _289  and  _292
REMARK  127  A    between atoms: _292  and  _293
REMARK  128  A    between atoms: _295  and  _297
REMARK  129  A    between atoms: _297  and  _298
REMARK  130  A    between atoms: _297  and  _300
REMARK  131  A    between atoms: _300  and  _301
REMARK  132  A    between atoms: _301  and  _302
REMARK  133  A    between atoms: _302  and  _303
REMARK  134  A    between atoms: _313  and  _314
REMARK  135  A    between atoms: _319  and  _321
REMARK  136  A    between atoms: _321  and  _322
REMARK  137  A    between atoms: _321  and  _324
REMARK  138  A    between atoms: _324  and  _325
REMARK                            x       y       z     vdW  Elec       q    Type
REMARK                         _______ _______ _______ _____ _____    ______ ____
ROOT
ATOM      1  O   HOH     1      11.493  -5.901  10.414  0.00  0.00    +0.000 OA
ENDROOT
TORSDOF 0
REMARK  Name = ../refined-set-2016/2rke/2rke_pocket.pdb
REMARK  138 active torsions:
REMARK  status: ('A' for Active; 'I' for Inactive)
REMARK    1  A    between atoms: _1  and  _3
REMARK    2  A    between atoms: _3  and  _4
REMARK    3  A    between atoms: _3  and  _6
REMARK    4  A    between atoms: _6  and  _7
REMARK    5  A    between atoms: _10  and  _12
REMARK    6  A    between atoms: _12  and  _13
REMARK    7  A    between atoms: _12  and  _15
REMARK    8  A    between atoms: _18  and  _20
REMARK    9  A    between atoms: _20  and  _21
REMARK   10  A    between atoms: _24  and  _26
REMARK   11  A    between atoms: _26  and  _27
REMARK   12  A    between atoms: _26  and  _29
REMARK   13  A    between atoms: _29  and  _30
REMARK   14  A    between atoms: _30  and  _31
REMARK   15  A    between atoms: _31  and  _32
REMARK   16  A    between atoms: _41  and  _43
REMARK   17  A    between atoms: _43  and  _44
REMARK   18  A    between atoms: _43  and  _46
REMARK   19  A    between atoms: _46  and  _47
REMARK   20  A    between atoms: _50  and  _52
REMARK   21  A    between atoms: _52  and  _53
REMARK   22  A    between atoms: _52  and  _55
REMARK   23  A    between atoms: _55  and  _56
REMARK   24  A    between atoms: _61  and  _62
REMARK   25  A    between atoms: _64  and  _66
REMARK   26  A    between atoms: _66  and  _67
REMARK   27  A    between atoms: _66  and  _69
REMARK   28  A    between atoms: _69  and  _70
REMARK   29  A    between atoms: _70  and  _71
REMARK   30  A    between atoms: _73  and  _75
REMARK   31  A    between atoms: _75  and  _76
REMARK   32  A    between atoms: _75  and  _78
REMARK   33  A    between atoms: _78  and  _79
REMARK   34  A    between atoms: _81  and  _83
REMARK   35  A    between atoms: _83  and  _84
REMARK   36  A    between atoms: _86  and  _88
REMARK   37  A    between atoms: _88  and  _89
REMARK   38  A    between atoms: _88  and  _91
REMARK   39  A    between atoms: _91  and  _92
REMARK   40  A    between atoms: _97  and  _98
REMARK   41  A    between atoms: _100  and  _102
REMARK   42  A    between atoms: _102  and  _103
REMARK   43  A    between atoms: _105  and  _107
REMARK   44  A    between atoms: _107  and  _108
REMARK   45  A    between atoms: _110  and  _112
REMARK   46  A    between atoms: _112  and  _113
REMARK   47  A    between atoms: _112  and  _115
REMARK   48  A    between atoms: _115  and  _116
REMARK   49  A    between atoms: _121  and  _123
REMARK   50  A    between atoms: _123  and  _124
REMARK   51  A    between atoms: _123  and  _126
REMARK   52  A    between atoms: _126  and  _127
REMARK   53  A    between atoms: _129  and  _131
REMARK   54  A    between atoms: _131  and  _132
REMARK   55  A    between atoms: _131  and  _134
REMARK   56  A    between atoms: _134  and  _135
REMARK   57  A    between atoms: _138  and  _140
REMARK   58  A    between atoms: _140  and  _141
REMARK   59  A    between atoms: _140  and  _143
REMARK   60  A    between atoms: _143  and  _144
REMARK   61  A    between atoms: _144  and  _145
REMARK   62  A    between atoms: _145  and  _146
REMARK   63  A    between atoms: _146  and  _147
REMARK   64  A    between atoms: _151  and  _153
REMARK   65  A    between atoms: _153  and  _154
REMARK   66  A    between atoms: _153  and  _156
REMARK   67  A    between atoms: _156  and  _157
REMARK   68  A    between atoms: _157  and  _158
REMARK   69  A    between atoms: _158  and  _159
REMARK   70  A    between atoms: _159  and  _160
REMARK   71  A    between atoms: _164  and  _166
REMARK   72  A    between atoms: _166  and  _167
REMARK   73  A    between atoms: _166  and  _169
REMARK   74  A    between atoms: _171  and  _173
REMARK   75  A    between atoms: _173  and  _174
REMARK   76  A    between atoms: _173  and  _176
REMARK   77  A    between atoms: _176  and  _177
REMARK   78  A    between atoms: _177  and  _178
REMARK   79  A    between atoms: _178  and  _179
REMARK   80  A    between atoms: _188  and  _190
REMARK   81  A    between atoms: _190  and  _191
REMARK   82  A    between atoms: _190  and  _193
REMARK   83  A    between atoms: _193  and  _194
REMARK   84  A    between atoms: _198  and  MN_331
REMARK   85  A    between atoms: _199  and  _201
REMARK   86  A    between atoms: _201  and  _202
REMARK   87  A    between atoms: _201  and  _204
REMARK   88  A    between atoms: _204  and  _205
REMARK   89  A    between atoms: _205  and  _206
REMARK   90  A    between atoms: _206  and  _207
REMARK   91  A    between atoms: _207  and  _208
REMARK   92  A    between atoms: _212  and  _214
REMARK   93  A    between atoms: _214  and  _215
REMARK   94  A    between atoms: _214  and  _217
REMARK   95  A    between atoms: _217  and  _218
REMARK   96  A    between atoms: _218  and  _219
REMARK   97  A    between atoms: _219  and  MN_331
REMARK   98  A    between atoms: _221  and  _223
REMARK   99  A    between atoms: _223  and  _224
REMARK  100  A    between atoms: _223  and  _226
REMARK  101  A    between atoms: _226  and  _227
REMARK  102  A    between atoms: _230  and  _232
REMARK  103  A    between atoms: _232  and  _233
REMARK  104  A    between atoms: _232  and  _235
REMARK  105  A    between atoms: _235  and  _236
REMARK  106  A    between atoms: _236  and  _237
REMARK  107  A    between atoms: _240  and  _242
REMARK  108  A    between atoms: _242  and  _243
REMARK  109  A    between atoms: _242  and  _245
REMARK  110  A    between atoms: _245  and  _246
REMARK  111  A    between atoms: _252  and  _254
REMARK  112  A    between atoms: _254  and  _255
REMARK  113  A    between atoms: _257  and  _259
REMARK  114  A    between atoms: _259  and  _260
REMARK  115  A    between atoms: _259  and  _262
REMARK  116  A    between atoms: _265  and  _267
REMARK  117  A    between atoms: _267  and  _268
REMARK  118  A    between atoms: _267  and  _270
REMARK  119  A    between atoms: _270  and  _271
REMARK  120  A    between atoms: _276  and  _278
REMARK  121  A    between atoms: _278  and  _279
REMARK  122  A    between atoms: _278  and  _281
REMARK  123  A    between atoms: _281  and  _282
REMARK  124  A    between atoms: _287  and  _289
REMARK  125  A    between atoms: _289  and  _290
REMARK  126  A    between atoms: _289  and  _292
REMARK  127  A    between atoms: _292  and  _293
REMARK  128  A    between atoms: _295  and  _297
REMARK  129  A    between atoms: _297  and  _298
REMARK  130  A    between atoms: _297  and  _300
REMARK  131  A    between atoms: _300  and  _301
REMARK  132  A    between atoms: _301  and  _302
REMARK  133  A    between atoms: _302  and  _303
REMARK  134  A    between atoms: _313  and  _314
REMARK  135  A    between atoms: _319  and  _321
REMARK  136  A    between atoms: _321  and  _322
REMARK  137  A    between atoms: _321  and  _324
REMARK  138  A    between atoms: _324  and  _325
REMARK                            x       y       z     vdW  Elec       q    Type
REMARK                         _______ _______ _______ _____ _____    ______ ____
ROOT
ATOM      1  O   HOH     1       1.101  -2.542  14.470  0.00  0.00    +0.000 OA
ENDROOT
TORSDOF 0
REMARK  Name = ../refined-set-2016/2rke/2rke_pocket.pdb
REMARK  138 active torsions:
REMARK  status: ('A' for Active; 'I' for Inactive)
REMARK    1  A    between atoms: _1  and  _3
REMARK    2  A    between atoms: _3  and  _4
REMARK    3  A    between atoms: _3  and  _6
REMARK    4  A    between atoms: _6  and  _7
REMARK    5  A    between atoms: _10  and  _12
REMARK    6  A    between atoms: _12  and  _13
REMARK    7  A    between atoms: _12  and  _15
REMARK    8  A    between atoms: _18  and  _20
REMARK    9  A    between atoms: _20  and  _21
REMARK   10  A    between atoms: _24  and  _26
REMARK   11  A    between atoms: _26  and  _27
REMARK   12  A    between atoms: _26  and  _29
REMARK   13  A    between atoms: _29  and  _30
REMARK   14  A    between atoms: _30  and  _31
REMARK   15  A    between atoms: _31  and  _32
REMARK   16  A    between atoms: _41  and  _43
REMARK   17  A    between atoms: _43  and  _44
REMARK   18  A    between atoms: _43  and  _46
REMARK   19  A    between atoms: _46  and  _47
REMARK   20  A    between atoms: _50  and  _52
REMARK   21  A    between atoms: _52  and  _53
REMARK   22  A    between atoms: _52  and  _55
REMARK   23  A    between atoms: _55  and  _56
REMARK   24  A    between atoms: _61  and  _62
REMARK   25  A    between atoms: _64  and  _66
REMARK   26  A    between atoms: _66  and  _67
REMARK   27  A    between atoms: _66  and  _69
REMARK   28  A    between atoms: _69  and  _70
REMARK   29  A    between atoms: _70  and  _71
REMARK   30  A    between atoms: _73  and  _75
REMARK   31  A    between atoms: _75  and  _76
REMARK   32  A    between atoms: _75  and  _78
REMARK   33  A    between atoms: _78  and  _79
REMARK   34  A    between atoms: _81  and  _83
REMARK   35  A    between atoms: _83  and  _84
REMARK   36  A    between atoms: _86  and  _88
REMARK   37  A    between atoms: _88  and  _89
REMARK   38  A    between atoms: _88  and  _91
REMARK   39  A    between atoms: _91  and  _92
REMARK   40  A    between atoms: _97  and  _98
REMARK   41  A    between atoms: _100  and  _102
REMARK   42  A    between atoms: _102  and  _103
REMARK   43  A    between atoms: _105  and  _107
REMARK   44  A    between atoms: _107  and  _108
REMARK   45  A    between atoms: _110  and  _112
REMARK   46  A    between atoms: _112  and  _113
REMARK   47  A    between atoms: _112  and  _115
REMARK   48  A    between atoms: _115  and  _116
REMARK   49  A    between atoms: _121  and  _123
REMARK   50  A    between atoms: _123  and  _124
REMARK   51  A    between atoms: _123  and  _126
REMARK   52  A    between atoms: _126  and  _127
REMARK   53  A    between atoms: _129  and  _131
REMARK   54  A    between atoms: _131  and  _132
REMARK   55  A    between atoms: _131  and  _134
REMARK   56  A    between atoms: _134  and  _135
REMARK   57  A    between atoms: _138  and  _140
REMARK   58  A    between atoms: _140  and  _141
REMARK   59  A    between atoms: _140  and  _143
REMARK   60  A    between atoms: _143  and  _144
REMARK   61  A    between atoms: _144  and  _145
REMARK   62  A    between atoms: _145  and  _146
REMARK   63  A    between atoms: _146  and  _147
REMARK   64  A    between atoms: _151  and  _153
REMARK   65  A    between atoms: _153  and  _154
REMARK   66  A    between atoms: _153  and  _156
REMARK   67  A    between atoms: _156  and  _157
REMARK   68  A    between atoms: _157  and  _158
REMARK   69  A    between atoms: _158  and  _159
REMARK   70  A    between atoms: _159  and  _160
REMARK   71  A    between atoms: _164  and  _166
REMARK   72  A    between atoms: _166  and  _167
REMARK   73  A    between atoms: _166  and  _169
REMARK   74  A    between atoms: _171  and  _173
REMARK   75  A    between atoms: _173  and  _174
REMARK   76  A    between atoms: _173  and  _176
REMARK   77  A    between atoms: _176  and  _177
REMARK   78  A    between atoms: _177  and  _178
REMARK   79  A    between atoms: _178  and  _179
REMARK   80  A    between atoms: _188  and  _190
REMARK   81  A    between atoms: _190  and  _191
REMARK   82  A    between atoms: _190  and  _193
REMARK   83  A    between atoms: _193  and  _194
REMARK   84  A    between atoms: _198  and  MN_331
REMARK   85  A    between atoms: _199  and  _201
REMARK   86  A    between atoms: _201  and  _202
REMARK   87  A    between atoms: _201  and  _204
REMARK   88  A    between atoms: _204  and  _205
REMARK   89  A    between atoms: _205  and  _206
REMARK   90  A    between atoms: _206  and  _207
REMARK   91  A    between atoms: _207  and  _208
REMARK   92  A    between atoms: _212  and  _214
REMARK   93  A    between atoms: _214  and  _215
REMARK   94  A    between atoms: _214  and  _217
REMARK   95  A    between atoms: _217  and  _218
REMARK   96  A    between atoms: _218  and  _219
REMARK   97  A    between atoms: _219  and  MN_331
REMARK   98  A    between atoms: _221  and  _223
REMARK   99  A    between atoms: _223  and  _224
REMARK  100  A    between atoms: _223  and  _226
REMARK  101  A    between atoms: _226  and  _227
REMARK  102  A    between atoms: _230  and  _232
REMARK  103  A    between atoms: _232  and  _233
REMARK  104  A    between atoms: _232  and  _235
REMARK  105  A    between atoms: _235  and  _236
REMARK  106  A    between atoms: _236  and  _237
REMARK  107  A    between atoms: _240  and  _242
REMARK  108  A    between atoms: _242  and  _243
REMARK  109  A    between atoms: _242  and  _245
REMARK  110  A    between atoms: _245  and  _246
REMARK  111  A    between atoms: _252  and  _254
REMARK  112  A    between atoms: _254  and  _255
REMARK  113  A    between atoms: _257  and  _259
REMARK  114  A    between atoms: _259  and  _260
REMARK  115  A    between atoms: _259  and  _262
REMARK  116  A    between atoms: _265  and  _267
REMARK  117  A    between atoms: _267  and  _268
REMARK  118  A    between atoms: _267  and  _270
REMARK  119  A    between atoms: _270  and  _271
REMARK  120  A    between atoms: _276  and  _278
REMARK  121  A    between atoms: _278  and  _279
REMARK  122  A    between atoms: _278  and  _281
REMARK  123  A    between atoms: _281  and  _282
REMARK  124  A    between atoms: _287  and  _289
REMARK  125  A    between atoms: _289  and  _290
REMARK  126  A    between atoms: _289  and  _292
REMARK  127  A    between atoms: _292  and  _293
REMARK  128  A    between atoms: _295  and  _297
REMARK  129  A    between atoms: _297  and  _298
REMARK  130  A    between atoms: _297  and  _300
REMARK  131  A    between atoms: _300  and  _301
REMARK  132  A    between atoms: _301  and  _302
REMARK  133  A    between atoms: _302  and  _303
REMARK  134  A    between atoms: _313  and  _314
REMARK  135  A    between atoms: _319  and  _321
REMARK  136  A    between atoms: _321  and  _322
REMARK  137  A    between atoms: _321  and  _324
REMARK  138  A    between atoms: _324  and  _325
REMARK                            x       y       z     vdW  Elec       q    Type
REMARK                         _______ _______ _______ _____ _____    ______ ____
ROOT
ATOM      1  O   HOH     1       5.620  -4.496  11.129  0.00  0.00    +0.000 OA
ENDROOT
TORSDOF 0
