REMARK  Name = ../refined-set-2016/4jsa/4jsa_pocket.pdb
REMARK  140 active torsions:
REMARK  status: ('A' for Active; 'I' for Inactive)
REMARK    1  A    between atoms: _1  and  _3
REMARK    2  A    between atoms: _3  and  _4
REMARK    3  A    between atoms: _3  and  _6
REMARK    4  A    between atoms: _6  and  _7
REMARK    5  A    between atoms: _17  and  _19
REMARK    6  A    between atoms: _19  and  _20
REMARK    7  A    between atoms: _19  and  _22
REMARK    8  A    between atoms: _22  and  _23
REMARK    9  A    between atoms: _28  and  _29
REMARK   10  A    between atoms: _31  and  _33
REMARK   11  A    between atoms: _33  and  _34
REMARK   12  A    between atoms: _33  and  _36
REMARK   13  A    between atoms: _36  and  _37
REMARK   14  A    between atoms: _40  and  _41
REMARK   15  A    between atoms: _46  and  _48
REMARK   16  A    between atoms: _48  and  _49
REMARK   17  A    between atoms: _48  and  _51
REMARK   18  A    between atoms: _51  and  _52
REMARK   19  A    between atoms: _57  and  _59
REMARK   20  A    between atoms: _59  and  _60
REMARK   21  A    between atoms: _63  and  _65
REMARK   22  A    between atoms: _65  and  _66
REMARK   23  A    between atoms: _65  and  _68
REMARK   24  A    between atoms: _68  and  _69
REMARK   25  A    between atoms: _74  and  _76
REMARK   26  A    between atoms: _76  and  _77
REMARK   27  A    between atoms: _76  and  _79
REMARK   28  A    between atoms: _79  and  _80
REMARK   29  A    between atoms: _83  and  _85
REMARK   30  A    between atoms: _85  and  _86
REMARK   31  A    between atoms: _85  and  _88
REMARK   32  A    between atoms: _88  and  _89
REMARK   33  A    between atoms: _89  and  _90
REMARK   34  A    between atoms: _95  and  _97
REMARK   35  A    between atoms: _97  and  _98
REMARK   36  A    between atoms: _97  and  _100
REMARK   37  A    between atoms: _100  and  _101
REMARK   38  A    between atoms: _107  and  _109
REMARK   39  A    between atoms: _118  and  _121
REMARK   40  A    between atoms: _121  and  _122
REMARK   41  A    between atoms: _130  and  _131
REMARK   42  A    between atoms: _139  and  _141
REMARK   43  A    between atoms: _141  and  _142
REMARK   44  A    between atoms: _141  and  _144
REMARK   45  A    between atoms: _144  and  _145
REMARK   46  A    between atoms: _145  and  _146
REMARK   47  A    between atoms: _149  and  _151
REMARK   48  A    between atoms: _151  and  _152
REMARK   49  A    between atoms: _151  and  _154
REMARK   50  A    between atoms: _154  and  _155
REMARK   51  A    between atoms: _160  and  _162
REMARK   52  A    between atoms: _162  and  _163
REMARK   53  A    between atoms: _162  and  _165
REMARK   54  A    between atoms: _165  and  _166
REMARK   55  A    between atoms: _166  and  _167
REMARK   56  A    between atoms: _170  and  _172
REMARK   57  A    between atoms: _172  and  _173
REMARK   58  A    between atoms: _172  and  _175
REMARK   59  A    between atoms: _175  and  _176
REMARK   60  A    between atoms: _179  and  _181
REMARK   61  A    between atoms: _181  and  _182
REMARK   62  A    between atoms: _181  and  _184
REMARK   63  A    between atoms: _184  and  _185
REMARK   64  A    between atoms: _186  and  ZN_394
REMARK   65  A    between atoms: _190  and  _192
REMARK   66  A    between atoms: _192  and  _193
REMARK   67  A    between atoms: _192  and  _195
REMARK   68  A    between atoms: _195  and  _196
REMARK   69  A    between atoms: _199  and  _201
REMARK   70  A    between atoms: _201  and  _202
REMARK   71  A    between atoms: _201  and  _204
REMARK   72  A    between atoms: _207  and  _209
REMARK   73  A    between atoms: _209  and  _210
REMARK   74  A    between atoms: _209  and  _212
REMARK   75  A    between atoms: _212  and  _213
REMARK   76  A    between atoms: _218  and  _220
REMARK   77  A    between atoms: _220  and  _221
REMARK   78  A    between atoms: _220  and  _223
REMARK   79  A    between atoms: _223  and  _224
REMARK   80  A    between atoms: _230  and  _232
REMARK   81  A    between atoms: _232  and  _233
REMARK   82  A    between atoms: _232  and  _235
REMARK   83  A    between atoms: _238  and  _240
REMARK   84  A    between atoms: _240  and  _241
REMARK   85  A    between atoms: _240  and  _243
REMARK   86  A    between atoms: _243  and  _244
REMARK   87  A    between atoms: _247  and  _249
REMARK   88  A    between atoms: _249  and  _250
REMARK   89  A    between atoms: _253  and  _255
REMARK   90  A    between atoms: _255  and  _256
REMARK   91  A    between atoms: _255  and  _258
REMARK   92  A    between atoms: _261  and  _263
REMARK   93  A    between atoms: _263  and  _264
REMARK   94  A    between atoms: _263  and  _266
REMARK   95  A    between atoms: _266  and  _267
REMARK   96  A    between atoms: _270  and  _272
REMARK   97  A    between atoms: _272  and  _273
REMARK   98  A    between atoms: _275  and  _277
REMARK   99  A    between atoms: _277  and  _278
REMARK  100  A    between atoms: _277  and  _280
REMARK  101  A    between atoms: _280  and  _281
REMARK  102  A    between atoms: _283  and  _285
REMARK  103  A    between atoms: _285  and  _286
REMARK  104  A    between atoms: _285  and  _288
REMARK  105  A    between atoms: _288  and  _289
REMARK  106  A    between atoms: _292  and  _294
REMARK  107  A    between atoms: _294  and  _295
REMARK  108  A    between atoms: _294  and  _297
REMARK  109  A    between atoms: _297  and  _298
REMARK  110  A    between atoms: _301  and  _303
REMARK  111  A    between atoms: _303  and  _304
REMARK  112  A    between atoms: _303  and  _306
REMARK  113  A    between atoms: _306  and  _307
REMARK  114  A    between atoms: _311  and  _312
REMARK  115  A    between atoms: _318  and  _319
REMARK  116  A    between atoms: _324  and  _326
REMARK  117  A    between atoms: _326  and  _327
REMARK  118  A    between atoms: _326  and  _329
REMARK  119  A    between atoms: _329  and  _330
REMARK  120  A    between atoms: _333  and  _335
REMARK  121  A    between atoms: _335  and  _336
REMARK  122  A    between atoms: _335  and  _338
REMARK  123  A    between atoms: _338  and  _339
REMARK  124  A    between atoms: _342  and  _344
REMARK  125  A    between atoms: _344  and  _345
REMARK  126  A    between atoms: _344  and  _347
REMARK  127  A    between atoms: _350  and  _352
REMARK  128  A    between atoms: _352  and  _353
REMARK  129  A    between atoms: _352  and  _355
REMARK  130  A    between atoms: _355  and  _356
REMARK  131  A    between atoms: _366  and  _368
REMARK  132  A    between atoms: _368  and  _369
REMARK  133  A    between atoms: _368  and  _371
REMARK  134  A    between atoms: _371  and  _372
REMARK  135  A    between atoms: _377  and  _379
REMARK  136  A    between atoms: _379  and  _380
REMARK  137  A    between atoms: _379  and  _382
REMARK  138  A    between atoms: _382  and  _383
REMARK  139  A    between atoms: _383  and  _384
REMARK  140  A    between atoms: _384  and  _385
REMARK                            x       y       z     vdW  Elec       q    Type
REMARK                         _______ _______ _______ _____ _____    ______ ____
ROOT
ATOM      1  CG  TRP A   1      26.726   0.093  12.040  0.00  0.00    -0.002 A 
ATOM      2  CD2 TRP A   1      25.352  -0.337  11.948  0.00  0.00    +0.013 A 
ATOM      3  CE3 TRP A   1      24.724  -1.580  12.120  0.00  0.00    +0.001 A 
ATOM      4  CZ3 TRP A   1      23.297  -1.636  11.936  0.00  0.00    +0.000 A 
ATOM      5  CH2 TRP A   1      22.585  -0.483  11.561  0.00  0.00    +0.001 A 
ATOM      6  CZ2 TRP A   1      23.149   0.734  11.388  0.00  0.00    +0.017 A 
ATOM      7  CE2 TRP A   1      24.588   0.794  11.563  0.00  0.00    +0.056 A 
ATOM      8  NE1 TRP A   1      25.444   1.864  11.468  0.00  0.00    -0.352 N 
ATOM      9  HE1 TRP A   1      25.165   2.836  11.223  0.00  0.00    +0.166 HD
ATOM     10  CD1 TRP A   1      26.729   1.452  11.747  0.00  0.00    +0.068 A 
ENDROOT
BRANCH   1  11
ATOM     11  CB  TRP A   1      27.920  -0.759  12.375  0.00  0.00    +0.053 C 
BRANCH  11  12
ATOM     12  CA  TRP A   1      28.567  -1.440  11.130  0.00  0.00    +0.137 C 
BRANCH  12  13
ATOM     13  N   TRP A   1      29.125  -0.425  10.256  0.00  0.00    -0.239 NA
ATOM     14  H   TRP A   1      28.754   0.545  10.298  0.00  0.00    +0.142 HD
ENDBRANCH  12  13
BRANCH  12  15
ATOM     15  C   TRP A   1      27.543  -2.297  10.344  0.00  0.00    +0.224 C 
ATOM     16  O   TRP A   1      26.973  -1.854   9.317  0.00  0.00    -0.287 OA
ENDBRANCH  12  15
ENDBRANCH  11  12
ENDBRANCH   1  11
TORSDOF 4
REMARK  Name = ../refined-set-2016/4jsa/4jsa_pocket.pdb
REMARK  140 active torsions:
REMARK  status: ('A' for Active; 'I' for Inactive)
REMARK    1  A    between atoms: _1  and  _3
REMARK    2  A    between atoms: _3  and  _4
REMARK    3  A    between atoms: _3  and  _6
REMARK    4  A    between atoms: _6  and  _7
REMARK    5  A    between atoms: _17  and  _19
REMARK    6  A    between atoms: _19  and  _20
REMARK    7  A    between atoms: _19  and  _22
REMARK    8  A    between atoms: _22  and  _23
REMARK    9  A    between atoms: _28  and  _29
REMARK   10  A    between atoms: _31  and  _33
REMARK   11  A    between atoms: _33  and  _34
REMARK   12  A    between atoms: _33  and  _36
REMARK   13  A    between atoms: _36  and  _37
REMARK   14  A    between atoms: _40  and  _41
REMARK   15  A    between atoms: _46  and  _48
REMARK   16  A    between atoms: _48  and  _49
REMARK   17  A    between atoms: _48  and  _51
REMARK   18  A    between atoms: _51  and  _52
REMARK   19  A    between atoms: _57  and  _59
REMARK   20  A    between atoms: _59  and  _60
REMARK   21  A    between atoms: _63  and  _65
REMARK   22  A    between atoms: _65  and  _66
REMARK   23  A    between atoms: _65  and  _68
REMARK   24  A    between atoms: _68  and  _69
REMARK   25  A    between atoms: _74  and  _76
REMARK   26  A    between atoms: _76  and  _77
REMARK   27  A    between atoms: _76  and  _79
REMARK   28  A    between atoms: _79  and  _80
REMARK   29  A    between atoms: _83  and  _85
REMARK   30  A    between atoms: _85  and  _86
REMARK   31  A    between atoms: _85  and  _88
REMARK   32  A    between atoms: _88  and  _89
REMARK   33  A    between atoms: _89  and  _90
REMARK   34  A    between atoms: _95  and  _97
REMARK   35  A    between atoms: _97  and  _98
REMARK   36  A    between atoms: _97  and  _100
REMARK   37  A    between atoms: _100  and  _101
REMARK   38  A    between atoms: _107  and  _109
REMARK   39  A    between atoms: _118  and  _121
REMARK   40  A    between atoms: _121  and  _122
REMARK   41  A    between atoms: _130  and  _131
REMARK   42  A    between atoms: _139  and  _141
REMARK   43  A    between atoms: _141  and  _142
REMARK   44  A    between atoms: _141  and  _144
REMARK   45  A    between atoms: _144  and  _145
REMARK   46  A    between atoms: _145  and  _146
REMARK   47  A    between atoms: _149  and  _151
REMARK   48  A    between atoms: _151  and  _152
REMARK   49  A    between atoms: _151  and  _154
REMARK   50  A    between atoms: _154  and  _155
REMARK   51  A    between atoms: _160  and  _162
REMARK   52  A    between atoms: _162  and  _163
REMARK   53  A    between atoms: _162  and  _165
REMARK   54  A    between atoms: _165  and  _166
REMARK   55  A    between atoms: _166  and  _167
REMARK   56  A    between atoms: _170  and  _172
REMARK   57  A    between atoms: _172  and  _173
REMARK   58  A    between atoms: _172  and  _175
REMARK   59  A    between atoms: _175  and  _176
REMARK   60  A    between atoms: _179  and  _181
REMARK   61  A    between atoms: _181  and  _182
REMARK   62  A    between atoms: _181  and  _184
REMARK   63  A    between atoms: _184  and  _185
REMARK   64  A    between atoms: _186  and  ZN_394
REMARK   65  A    between atoms: _190  and  _192
REMARK   66  A    between atoms: _192  and  _193
REMARK   67  A    between atoms: _192  and  _195
REMARK   68  A    between atoms: _195  and  _196
REMARK   69  A    between atoms: _199  and  _201
REMARK   70  A    between atoms: _201  and  _202
REMARK   71  A    between atoms: _201  and  _204
REMARK   72  A    between atoms: _207  and  _209
REMARK   73  A    between atoms: _209  and  _210
REMARK   74  A    between atoms: _209  and  _212
REMARK   75  A    between atoms: _212  and  _213
REMARK   76  A    between atoms: _218  and  _220
REMARK   77  A    between atoms: _220  and  _221
REMARK   78  A    between atoms: _220  and  _223
REMARK   79  A    between atoms: _223  and  _224
REMARK   80  A    between atoms: _230  and  _232
REMARK   81  A    between atoms: _232  and  _233
REMARK   82  A    between atoms: _232  and  _235
REMARK   83  A    between atoms: _238  and  _240
REMARK   84  A    between atoms: _240  and  _241
REMARK   85  A    between atoms: _240  and  _243
REMARK   86  A    between atoms: _243  and  _244
REMARK   87  A    between atoms: _247  and  _249
REMARK   88  A    between atoms: _249  and  _250
REMARK   89  A    between atoms: _253  and  _255
REMARK   90  A    between atoms: _255  and  _256
REMARK   91  A    between atoms: _255  and  _258
REMARK   92  A    between atoms: _261  and  _263
REMARK   93  A    between atoms: _263  and  _264
REMARK   94  A    between atoms: _263  and  _266
REMARK   95  A    between atoms: _266  and  _267
REMARK   96  A    between atoms: _270  and  _272
REMARK   97  A    between atoms: _272  and  _273
REMARK   98  A    between atoms: _275  and  _277
REMARK   99  A    between atoms: _277  and  _278
REMARK  100  A    between atoms: _277  and  _280
REMARK  101  A    between atoms: _280  and  _281
REMARK  102  A    between atoms: _283  and  _285
REMARK  103  A    between atoms: _285  and  _286
REMARK  104  A    between atoms: _285  and  _288
REMARK  105  A    between atoms: _288  and  _289
REMARK  106  A    between atoms: _292  and  _294
REMARK  107  A    between atoms: _294  and  _295
REMARK  108  A    between atoms: _294  and  _297
REMARK  109  A    between atoms: _297  and  _298
REMARK  110  A    between atoms: _301  and  _303
REMARK  111  A    between atoms: _303  and  _304
REMARK  112  A    between atoms: _303  and  _306
REMARK  113  A    between atoms: _306  and  _307
REMARK  114  A    between atoms: _311  and  _312
REMARK  115  A    between atoms: _318  and  _319
REMARK  116  A    between atoms: _324  and  _326
REMARK  117  A    between atoms: _326  and  _327
REMARK  118  A    between atoms: _326  and  _329
REMARK  119  A    between atoms: _329  and  _330
REMARK  120  A    between atoms: _333  and  _335
REMARK  121  A    between atoms: _335  and  _336
REMARK  122  A    between atoms: _335  and  _338
REMARK  123  A    between atoms: _338  and  _339
REMARK  124  A    between atoms: _342  and  _344
REMARK  125  A    between atoms: _344  and  _345
REMARK  126  A    between atoms: _344  and  _347
REMARK  127  A    between atoms: _350  and  _352
REMARK  128  A    between atoms: _352  and  _353
REMARK  129  A    between atoms: _352  and  _355
REMARK  130  A    between atoms: _355  and  _356
REMARK  131  A    between atoms: _366  and  _368
REMARK  132  A    between atoms: _368  and  _369
REMARK  133  A    between atoms: _368  and  _371
REMARK  134  A    between atoms: _371  and  _372
REMARK  135  A    between atoms: _377  and  _379
REMARK  136  A    between atoms: _379  and  _380
REMARK  137  A    between atoms: _379  and  _382
REMARK  138  A    between atoms: _382  and  _383
REMARK  139  A    between atoms: _383  and  _384
REMARK  140  A    between atoms: _384  and  _385
REMARK                            x       y       z     vdW  Elec       q    Type
REMARK                         _______ _______ _______ _____ _____    ______ ____
ROOT
ATOM      1  CG  TYR A   1      22.848  -7.084  11.780  0.00  0.00    -0.020 A 
ATOM      2  CD2 TYR A   1      22.497  -7.043  13.168  0.00  0.00    -0.001 A 
ATOM      3  CE2 TYR A   1      21.595  -6.030  13.655  0.00  0.00    +0.036 A 
ATOM      4  CZ  TYR A   1      21.021  -5.095  12.787  0.00  0.00    +0.134 A 
ATOM      5  CE1 TYR A   1      21.397  -5.108  11.400  0.00  0.00    +0.036 A 
ATOM      6  CD1 TYR A   1      22.287  -6.130  10.945  0.00  0.00    -0.001 A 
ENDROOT
BRANCH   4   7
ATOM      7  OH  TYR A   1      20.122  -4.182  13.113  0.00  0.00    -0.506 OA
ATOM      8  HH  TYR A   1      19.925  -4.246  14.081  0.00  0.00    +0.292 HD
ENDBRANCH   4   7
BRANCH   1   9
ATOM      9  CB  TYR A   1      23.807  -8.149  11.290  0.00  0.00    +0.051 C 
BRANCH   9  10
ATOM     10  CA  TYR A   1      25.271  -7.777  11.512  0.00  0.00    +0.137 C 
BRANCH  10  11
ATOM     11  N   TYR A   1      25.615  -6.595  10.704  0.00  0.00    -0.239 NA
ATOM     12  H   TYR A   1      25.648  -6.676   9.668  0.00  0.00    +0.142 HD
ENDBRANCH  10  11
BRANCH  10  13
ATOM     13  C   TYR A   1      26.120  -9.000  11.325  0.00  0.00    +0.224 C 
ATOM     14  O   TYR A   1      25.841 -10.079  11.913  0.00  0.00    -0.287 OA
ENDBRANCH  10  13
ENDBRANCH   9  10
ENDBRANCH   1   9
TORSDOF 5
REMARK  Name = ../refined-set-2016/4jsa/4jsa_pocket.pdb
REMARK  140 active torsions:
REMARK  status: ('A' for Active; 'I' for Inactive)
REMARK    1  A    between atoms: _1  and  _3
REMARK    2  A    between atoms: _3  and  _4
REMARK    3  A    between atoms: _3  and  _6
REMARK    4  A    between atoms: _6  and  _7
REMARK    5  A    between atoms: _17  and  _19
REMARK    6  A    between atoms: _19  and  _20
REMARK    7  A    between atoms: _19  and  _22
REMARK    8  A    between atoms: _22  and  _23
REMARK    9  A    between atoms: _28  and  _29
REMARK   10  A    between atoms: _31  and  _33
REMARK   11  A    between atoms: _33  and  _34
REMARK   12  A    between atoms: _33  and  _36
REMARK   13  A    between atoms: _36  and  _37
REMARK   14  A    between atoms: _40  and  _41
REMARK   15  A    between atoms: _46  and  _48
REMARK   16  A    between atoms: _48  and  _49
REMARK   17  A    between atoms: _48  and  _51
REMARK   18  A    between atoms: _51  and  _52
REMARK   19  A    between atoms: _57  and  _59
REMARK   20  A    between atoms: _59  and  _60
REMARK   21  A    between atoms: _63  and  _65
REMARK   22  A    between atoms: _65  and  _66
REMARK   23  A    between atoms: _65  and  _68
REMARK   24  A    between atoms: _68  and  _69
REMARK   25  A    between atoms: _74  and  _76
REMARK   26  A    between atoms: _76  and  _77
REMARK   27  A    between atoms: _76  and  _79
REMARK   28  A    between atoms: _79  and  _80
REMARK   29  A    between atoms: _83  and  _85
REMARK   30  A    between atoms: _85  and  _86
REMARK   31  A    between atoms: _85  and  _88
REMARK   32  A    between atoms: _88  and  _89
REMARK   33  A    between atoms: _89  and  _90
REMARK   34  A    between atoms: _95  and  _97
REMARK   35  A    between atoms: _97  and  _98
REMARK   36  A    between atoms: _97  and  _100
REMARK   37  A    between atoms: _100  and  _101
REMARK   38  A    between atoms: _107  and  _109
REMARK   39  A    between atoms: _118  and  _121
REMARK   40  A    between atoms: _121  and  _122
REMARK   41  A    between atoms: _130  and  _131
REMARK   42  A    between atoms: _139  and  _141
REMARK   43  A    between atoms: _141  and  _142
REMARK   44  A    between atoms: _141  and  _144
REMARK   45  A    between atoms: _144  and  _145
REMARK   46  A    between atoms: _145  and  _146
REMARK   47  A    between atoms: _149  and  _151
REMARK   48  A    between atoms: _151  and  _152
REMARK   49  A    between atoms: _151  and  _154
REMARK   50  A    between atoms: _154  and  _155
REMARK   51  A    between atoms: _160  and  _162
REMARK   52  A    between atoms: _162  and  _163
REMARK   53  A    between atoms: _162  and  _165
REMARK   54  A    between atoms: _165  and  _166
REMARK   55  A    between atoms: _166  and  _167
REMARK   56  A    between atoms: _170  and  _172
REMARK   57  A    between atoms: _172  and  _173
REMARK   58  A    between atoms: _172  and  _175
REMARK   59  A    between atoms: _175  and  _176
REMARK   60  A    between atoms: _179  and  _181
REMARK   61  A    between atoms: _181  and  _182
REMARK   62  A    between atoms: _181  and  _184
REMARK   63  A    between atoms: _184  and  _185
REMARK   64  A    between atoms: _186  and  ZN_394
REMARK   65  A    between atoms: _190  and  _192
REMARK   66  A    between atoms: _192  and  _193
REMARK   67  A    between atoms: _192  and  _195
REMARK   68  A    between atoms: _195  and  _196
REMARK   69  A    between atoms: _199  and  _201
REMARK   70  A    between atoms: _201  and  _202
REMARK   71  A    between atoms: _201  and  _204
REMARK   72  A    between atoms: _207  and  _209
REMARK   73  A    between atoms: _209  and  _210
REMARK   74  A    between atoms: _209  and  _212
REMARK   75  A    between atoms: _212  and  _213
REMARK   76  A    between atoms: _218  and  _220
REMARK   77  A    between atoms: _220  and  _221
REMARK   78  A    between atoms: _220  and  _223
REMARK   79  A    between atoms: _223  and  _224
REMARK   80  A    between atoms: _230  and  _232
REMARK   81  A    between atoms: _232  and  _233
REMARK   82  A    between atoms: _232  and  _235
REMARK   83  A    between atoms: _238  and  _240
REMARK   84  A    between atoms: _240  and  _241
REMARK   85  A    between atoms: _240  and  _243
REMARK   86  A    between atoms: _243  and  _244
REMARK   87  A    between atoms: _247  and  _249
REMARK   88  A    between atoms: _249  and  _250
REMARK   89  A    between atoms: _253  and  _255
REMARK   90  A    between atoms: _255  and  _256
REMARK   91  A    between atoms: _255  and  _258
REMARK   92  A    between atoms: _261  and  _263
REMARK   93  A    between atoms: _263  and  _264
REMARK   94  A    between atoms: _263  and  _266
REMARK   95  A    between atoms: _266  and  _267
REMARK   96  A    between atoms: _270  and  _272
REMARK   97  A    between atoms: _272  and  _273
REMARK   98  A    between atoms: _275  and  _277
REMARK   99  A    between atoms: _277  and  _278
REMARK  100  A    between atoms: _277  and  _280
REMARK  101  A    between atoms: _280  and  _281
REMARK  102  A    between atoms: _283  and  _285
REMARK  103  A    between atoms: _285  and  _286
REMARK  104  A    between atoms: _285  and  _288
REMARK  105  A    between atoms: _288  and  _289
REMARK  106  A    between atoms: _292  and  _294
REMARK  107  A    between atoms: _294  and  _295
REMARK  108  A    between atoms: _294  and  _297
REMARK  109  A    between atoms: _297  and  _298
REMARK  110  A    between atoms: _301  and  _303
REMARK  111  A    between atoms: _303  and  _304
REMARK  112  A    between atoms: _303  and  _306
REMARK  113  A    between atoms: _306  and  _307
REMARK  114  A    between atoms: _311  and  _312
REMARK  115  A    between atoms: _318  and  _319
REMARK  116  A    between atoms: _324  and  _326
REMARK  117  A    between atoms: _326  and  _327
REMARK  118  A    between atoms: _326  and  _329
REMARK  119  A    between atoms: _329  and  _330
REMARK  120  A    between atoms: _333  and  _335
REMARK  121  A    between atoms: _335  and  _336
REMARK  122  A    between atoms: _335  and  _338
REMARK  123  A    between atoms: _338  and  _339
REMARK  124  A    between atoms: _342  and  _344
REMARK  125  A    between atoms: _344  and  _345
REMARK  126  A    between atoms: _344  and  _347
REMARK  127  A    between atoms: _350  and  _352
REMARK  128  A    between atoms: _352  and  _353
REMARK  129  A    between atoms: _352  and  _355
REMARK  130  A    between atoms: _355  and  _356
REMARK  131  A    between atoms: _366  and  _368
REMARK  132  A    between atoms: _368  and  _369
REMARK  133  A    between atoms: _368  and  _371
REMARK  134  A    between atoms: _371  and  _372
REMARK  135  A    between atoms: _377  and  _379
REMARK  136  A    between atoms: _379  and  _380
REMARK  137  A    between atoms: _379  and  _382
REMARK  138  A    between atoms: _382  and  _383
REMARK  139  A    between atoms: _383  and  _384
REMARK  140  A    between atoms: _384  and  _385
REMARK                            x       y       z     vdW  Elec       q    Type
REMARK                         _______ _______ _______ _____ _____    ______ ____
ROOT
ATOM      1  C   SER A   1      18.676  -3.071  23.084  0.00  0.00    +0.244 C 
ATOM      2  N   PRO A   2      18.059  -4.239  22.850  0.00  0.00    -0.273 N 
ATOM      3  CA  PRO A   2      16.873  -4.763  23.601  0.00  0.00    +0.140 C 
ATOM      4  CB  PRO A   2      16.342  -5.812  22.660  0.00  0.00    +0.030 C 
ATOM      5  CG  PRO A   2      17.667  -6.474  22.033  0.00  0.00    +0.024 C 
ATOM      6  CD  PRO A   2      18.535  -5.183  21.799  0.00  0.00    +0.094 C 
ATOM      7  O   SER A   1      19.616  -2.675  22.399  0.00  0.00    -0.273 OA
ENDROOT
BRANCH   3   8
ATOM      8  C   PRO A   2      17.286  -5.390  24.896  0.00  0.00    +0.227 C 
ATOM      9  O   PRO A   2      18.498  -5.422  25.233  0.00  0.00    -0.286 OA
ENDBRANCH   3   8
BRANCH   1  10
ATOM     10  CA  SER A   1      18.152  -2.219  24.240  0.00  0.00    +0.175 C 
BRANCH  10  11
ATOM     11  N   SER A   1      19.226  -1.314  24.695  0.00  0.00    -0.236 NA
ATOM     12  H   SER A   1      19.735  -0.731  24.000  0.00  0.00    +0.142 HD
ENDBRANCH  10  11
BRANCH  10  13
ATOM     13  CB  SER A   1      16.995  -1.381  23.686  0.00  0.00    +0.163 C 
BRANCH  13  14
ATOM     14  OG  SER A   1      16.358  -0.706  24.834  0.00  0.00    -0.380 OA
ATOM     15  H   SER A   1      16.023  -1.386  25.471  0.00  0.00    +0.211 HD
ENDBRANCH  13  14
ENDBRANCH  10  13
ENDBRANCH   1  10
TORSDOF 5
REMARK  Name = ../refined-set-2016/4jsa/4jsa_pocket.pdb
REMARK  140 active torsions:
REMARK  status: ('A' for Active; 'I' for Inactive)
REMARK    1  A    between atoms: _1  and  _3
REMARK    2  A    between atoms: _3  and  _4
REMARK    3  A    between atoms: _3  and  _6
REMARK    4  A    between atoms: _6  and  _7
REMARK    5  A    between atoms: _17  and  _19
REMARK    6  A    between atoms: _19  and  _20
REMARK    7  A    between atoms: _19  and  _22
REMARK    8  A    between atoms: _22  and  _23
REMARK    9  A    between atoms: _28  and  _29
REMARK   10  A    between atoms: _31  and  _33
REMARK   11  A    between atoms: _33  and  _34
REMARK   12  A    between atoms: _33  and  _36
REMARK   13  A    between atoms: _36  and  _37
REMARK   14  A    between atoms: _40  and  _41
REMARK   15  A    between atoms: _46  and  _48
REMARK   16  A    between atoms: _48  and  _49
REMARK   17  A    between atoms: _48  and  _51
REMARK   18  A    between atoms: _51  and  _52
REMARK   19  A    between atoms: _57  and  _59
REMARK   20  A    between atoms: _59  and  _60
REMARK   21  A    between atoms: _63  and  _65
REMARK   22  A    between atoms: _65  and  _66
REMARK   23  A    between atoms: _65  and  _68
REMARK   24  A    between atoms: _68  and  _69
REMARK   25  A    between atoms: _74  and  _76
REMARK   26  A    between atoms: _76  and  _77
REMARK   27  A    between atoms: _76  and  _79
REMARK   28  A    between atoms: _79  and  _80
REMARK   29  A    between atoms: _83  and  _85
REMARK   30  A    between atoms: _85  and  _86
REMARK   31  A    between atoms: _85  and  _88
REMARK   32  A    between atoms: _88  and  _89
REMARK   33  A    between atoms: _89  and  _90
REMARK   34  A    between atoms: _95  and  _97
REMARK   35  A    between atoms: _97  and  _98
REMARK   36  A    between atoms: _97  and  _100
REMARK   37  A    between atoms: _100  and  _101
REMARK   38  A    between atoms: _107  and  _109
REMARK   39  A    between atoms: _118  and  _121
REMARK   40  A    between atoms: _121  and  _122
REMARK   41  A    between atoms: _130  and  _131
REMARK   42  A    between atoms: _139  and  _141
REMARK   43  A    between atoms: _141  and  _142
REMARK   44  A    between atoms: _141  and  _144
REMARK   45  A    between atoms: _144  and  _145
REMARK   46  A    between atoms: _145  and  _146
REMARK   47  A    between atoms: _149  and  _151
REMARK   48  A    between atoms: _151  and  _152
REMARK   49  A    between atoms: _151  and  _154
REMARK   50  A    between atoms: _154  and  _155
REMARK   51  A    between atoms: _160  and  _162
REMARK   52  A    between atoms: _162  and  _163
REMARK   53  A    between atoms: _162  and  _165
REMARK   54  A    between atoms: _165  and  _166
REMARK   55  A    between atoms: _166  and  _167
REMARK   56  A    between atoms: _170  and  _172
REMARK   57  A    between atoms: _172  and  _173
REMARK   58  A    between atoms: _172  and  _175
REMARK   59  A    between atoms: _175  and  _176
REMARK   60  A    between atoms: _179  and  _181
REMARK   61  A    between atoms: _181  and  _182
REMARK   62  A    between atoms: _181  and  _184
REMARK   63  A    between atoms: _184  and  _185
REMARK   64  A    between atoms: _186  and  ZN_394
REMARK   65  A    between atoms: _190  and  _192
REMARK   66  A    between atoms: _192  and  _193
REMARK   67  A    between atoms: _192  and  _195
REMARK   68  A    between atoms: _195  and  _196
REMARK   69  A    between atoms: _199  and  _201
REMARK   70  A    between atoms: _201  and  _202
REMARK   71  A    between atoms: _201  and  _204
REMARK   72  A    between atoms: _207  and  _209
REMARK   73  A    between atoms: _209  and  _210
REMARK   74  A    between atoms: _209  and  _212
REMARK   75  A    between atoms: _212  and  _213
REMARK   76  A    between atoms: _218  and  _220
REMARK   77  A    between atoms: _220  and  _221
REMARK   78  A    between atoms: _220  and  _223
REMARK   79  A    between atoms: _223  and  _224
REMARK   80  A    between atoms: _230  and  _232
REMARK   81  A    between atoms: _232  and  _233
REMARK   82  A    between atoms: _232  and  _235
REMARK   83  A    between atoms: _238  and  _240
REMARK   84  A    between atoms: _240  and  _241
REMARK   85  A    between atoms: _240  and  _243
REMARK   86  A    between atoms: _243  and  _244
REMARK   87  A    between atoms: _247  and  _249
REMARK   88  A    between atoms: _249  and  _250
REMARK   89  A    between atoms: _253  and  _255
REMARK   90  A    between atoms: _255  and  _256
REMARK   91  A    between atoms: _255  and  _258
REMARK   92  A    between atoms: _261  and  _263
REMARK   93  A    between atoms: _263  and  _264
REMARK   94  A    between atoms: _263  and  _266
REMARK   95  A    between atoms: _266  and  _267
REMARK   96  A    between atoms: _270  and  _272
REMARK   97  A    between atoms: _272  and  _273
REMARK   98  A    between atoms: _275  and  _277
REMARK   99  A    between atoms: _277  and  _278
REMARK  100  A    between atoms: _277  and  _280
REMARK  101  A    between atoms: _280  and  _281
REMARK  102  A    between atoms: _283  and  _285
REMARK  103  A    between atoms: _285  and  _286
REMARK  104  A    between atoms: _285  and  _288
REMARK  105  A    between atoms: _288  and  _289
REMARK  106  A    between atoms: _292  and  _294
REMARK  107  A    between atoms: _294  and  _295
REMARK  108  A    between atoms: _294  and  _297
REMARK  109  A    between atoms: _297  and  _298
REMARK  110  A    between atoms: _301  and  _303
REMARK  111  A    between atoms: _303  and  _304
REMARK  112  A    between atoms: _303  and  _306
REMARK  113  A    between atoms: _306  and  _307
REMARK  114  A    between atoms: _311  and  _312
REMARK  115  A    between atoms: _318  and  _319
REMARK  116  A    between atoms: _324  and  _326
REMARK  117  A    between atoms: _326  and  _327
REMARK  118  A    between atoms: _326  and  _329
REMARK  119  A    between atoms: _329  and  _330
REMARK  120  A    between atoms: _333  and  _335
REMARK  121  A    between atoms: _335  and  _336
REMARK  122  A    between atoms: _335  and  _338
REMARK  123  A    between atoms: _338  and  _339
REMARK  124  A    between atoms: _342  and  _344
REMARK  125  A    between atoms: _344  and  _345
REMARK  126  A    between atoms: _344  and  _347
REMARK  127  A    between atoms: _350  and  _352
REMARK  128  A    between atoms: _352  and  _353
REMARK  129  A    between atoms: _352  and  _355
REMARK  130  A    between atoms: _355  and  _356
REMARK  131  A    between atoms: _366  and  _368
REMARK  132  A    between atoms: _368  and  _369
REMARK  133  A    between atoms: _368  and  _371
REMARK  134  A    between atoms: _371  and  _372
REMARK  135  A    between atoms: _377  and  _379
REMARK  136  A    between atoms: _379  and  _380
REMARK  137  A    between atoms: _379  and  _382
REMARK  138  A    between atoms: _382  and  _383
REMARK  139  A    between atoms: _383  and  _384
REMARK  140  A    between atoms: _384  and  _385
REMARK                            x       y       z     vdW  Elec       q    Type
REMARK                         _______ _______ _______ _____ _____    ______ ____
ROOT
ATOM      1  CB  ASN A   1      18.593   1.558   5.241  0.00  0.00    +0.110 C 
ENDROOT
BRANCH   1   2
ATOM      2  CG  ASN A   1      18.374   0.645   6.503  0.00  0.00    +0.221 C 
ATOM      3  ND2 ASN A   1      18.174   1.311   7.649  0.00  0.00    -0.329 N 
ATOM      4 HD21 ASN A   1      18.167   0.798   8.554  0.00  0.00    +0.145 HD
ATOM      5 HD22 ASN A   1      18.026   2.340   7.633  0.00  0.00    +0.145 HD
ATOM      6  OD1 ASN A   1      18.546  -0.531   6.485  0.00  0.00    -0.275 OA
ENDBRANCH   1   2
BRANCH   1   7
ATOM      7  CA  ASN A   1      18.947   0.743   4.006  0.00  0.00    +0.142 C 
BRANCH   7   8
ATOM      8  N   ASN A   1      17.811  -0.096   3.568  0.00  0.00    -0.239 NA
ATOM      9  H   ASN A   1      17.255  -0.622   4.272  0.00  0.00    +0.142 HD
ENDBRANCH   7   8
BRANCH   7  10
ATOM     10  C   ASN A   1      20.238  -0.053   4.215  0.00  0.00    +0.225 C 
ATOM     11  O   ASN A   1      21.241   0.470   4.769  0.00  0.00    -0.287 OA
ENDBRANCH   7  10
ENDBRANCH   1   7
TORSDOF 4
REMARK  Name = ../refined-set-2016/4jsa/4jsa_pocket.pdb
REMARK  140 active torsions:
REMARK  status: ('A' for Active; 'I' for Inactive)
REMARK    1  A    between atoms: _1  and  _3
REMARK    2  A    between atoms: _3  and  _4
REMARK    3  A    between atoms: _3  and  _6
REMARK    4  A    between atoms: _6  and  _7
REMARK    5  A    between atoms: _17  and  _19
REMARK    6  A    between atoms: _19  and  _20
REMARK    7  A    between atoms: _19  and  _22
REMARK    8  A    between atoms: _22  and  _23
REMARK    9  A    between atoms: _28  and  _29
REMARK   10  A    between atoms: _31  and  _33
REMARK   11  A    between atoms: _33  and  _34
REMARK   12  A    between atoms: _33  and  _36
REMARK   13  A    between atoms: _36  and  _37
REMARK   14  A    between atoms: _40  and  _41
REMARK   15  A    between atoms: _46  and  _48
REMARK   16  A    between atoms: _48  and  _49
REMARK   17  A    between atoms: _48  and  _51
REMARK   18  A    between atoms: _51  and  _52
REMARK   19  A    between atoms: _57  and  _59
REMARK   20  A    between atoms: _59  and  _60
REMARK   21  A    between atoms: _63  and  _65
REMARK   22  A    between atoms: _65  and  _66
REMARK   23  A    between atoms: _65  and  _68
REMARK   24  A    between atoms: _68  and  _69
REMARK   25  A    between atoms: _74  and  _76
REMARK   26  A    between atoms: _76  and  _77
REMARK   27  A    between atoms: _76  and  _79
REMARK   28  A    between atoms: _79  and  _80
REMARK   29  A    between atoms: _83  and  _85
REMARK   30  A    between atoms: _85  and  _86
REMARK   31  A    between atoms: _85  and  _88
REMARK   32  A    between atoms: _88  and  _89
REMARK   33  A    between atoms: _89  and  _90
REMARK   34  A    between atoms: _95  and  _97
REMARK   35  A    between atoms: _97  and  _98
REMARK   36  A    between atoms: _97  and  _100
REMARK   37  A    between atoms: _100  and  _101
REMARK   38  A    between atoms: _107  and  _109
REMARK   39  A    between atoms: _118  and  _121
REMARK   40  A    between atoms: _121  and  _122
REMARK   41  A    between atoms: _130  and  _131
REMARK   42  A    between atoms: _139  and  _141
REMARK   43  A    between atoms: _141  and  _142
REMARK   44  A    between atoms: _141  and  _144
REMARK   45  A    between atoms: _144  and  _145
REMARK   46  A    between atoms: _145  and  _146
REMARK   47  A    between atoms: _149  and  _151
REMARK   48  A    between atoms: _151  and  _152
REMARK   49  A    between atoms: _151  and  _154
REMARK   50  A    between atoms: _154  and  _155
REMARK   51  A    between atoms: _160  and  _162
REMARK   52  A    between atoms: _162  and  _163
REMARK   53  A    between atoms: _162  and  _165
REMARK   54  A    between atoms: _165  and  _166
REMARK   55  A    between atoms: _166  and  _167
REMARK   56  A    between atoms: _170  and  _172
REMARK   57  A    between atoms: _172  and  _173
REMARK   58  A    between atoms: _172  and  _175
REMARK   59  A    between atoms: _175  and  _176
REMARK   60  A    between atoms: _179  and  _181
REMARK   61  A    between atoms: _181  and  _182
REMARK   62  A    between atoms: _181  and  _184
REMARK   63  A    between atoms: _184  and  _185
REMARK   64  A    between atoms: _186  and  ZN_394
REMARK   65  A    between atoms: _190  and  _192
REMARK   66  A    between atoms: _192  and  _193
REMARK   67  A    between atoms: _192  and  _195
REMARK   68  A    between atoms: _195  and  _196
REMARK   69  A    between atoms: _199  and  _201
REMARK   70  A    between atoms: _201  and  _202
REMARK   71  A    between atoms: _201  and  _204
REMARK   72  A    between atoms: _207  and  _209
REMARK   73  A    between atoms: _209  and  _210
REMARK   74  A    between atoms: _209  and  _212
REMARK   75  A    between atoms: _212  and  _213
REMARK   76  A    between atoms: _218  and  _220
REMARK   77  A    between atoms: _220  and  _221
REMARK   78  A    between atoms: _220  and  _223
REMARK   79  A    between atoms: _223  and  _224
REMARK   80  A    between atoms: _230  and  _232
REMARK   81  A    between atoms: _232  and  _233
REMARK   82  A    between atoms: _232  and  _235
REMARK   83  A    between atoms: _238  and  _240
REMARK   84  A    between atoms: _240  and  _241
REMARK   85  A    between atoms: _240  and  _243
REMARK   86  A    between atoms: _243  and  _244
REMARK   87  A    between atoms: _247  and  _249
REMARK   88  A    between atoms: _249  and  _250
REMARK   89  A    between atoms: _253  and  _255
REMARK   90  A    between atoms: _255  and  _256
REMARK   91  A    between atoms: _255  and  _258
REMARK   92  A    between atoms: _261  and  _263
REMARK   93  A    between atoms: _263  and  _264
REMARK   94  A    between atoms: _263  and  _266
REMARK   95  A    between atoms: _266  and  _267
REMARK   96  A    between atoms: _270  and  _272
REMARK   97  A    between atoms: _272  and  _273
REMARK   98  A    between atoms: _275  and  _277
REMARK   99  A    between atoms: _277  and  _278
REMARK  100  A    between atoms: _277  and  _280
REMARK  101  A    between atoms: _280  and  _281
REMARK  102  A    between atoms: _283  and  _285
REMARK  103  A    between atoms: _285  and  _286
REMARK  104  A    between atoms: _285  and  _288
REMARK  105  A    between atoms: _288  and  _289
REMARK  106  A    between atoms: _292  and  _294
REMARK  107  A    between atoms: _294  and  _295
REMARK  108  A    between atoms: _294  and  _297
REMARK  109  A    between atoms: _297  and  _298
REMARK  110  A    between atoms: _301  and  _303
REMARK  111  A    between atoms: _303  and  _304
REMARK  112  A    between atoms: _303  and  _306
REMARK  113  A    between atoms: _306  and  _307
REMARK  114  A    between atoms: _311  and  _312
REMARK  115  A    between atoms: _318  and  _319
REMARK  116  A    between atoms: _324  and  _326
REMARK  117  A    between atoms: _326  and  _327
REMARK  118  A    between atoms: _326  and  _329
REMARK  119  A    between atoms: _329  and  _330
REMARK  120  A    between atoms: _333  and  _335
REMARK  121  A    between atoms: _335  and  _336
REMARK  122  A    between atoms: _335  and  _338
REMARK  123  A    between atoms: _338  and  _339
REMARK  124  A    between atoms: _342  and  _344
REMARK  125  A    between atoms: _344  and  _345
REMARK  126  A    between atoms: _344  and  _347
REMARK  127  A    between atoms: _350  and  _352
REMARK  128  A    between atoms: _352  and  _353
REMARK  129  A    between atoms: _352  and  _355
REMARK  130  A    between atoms: _355  and  _356
REMARK  131  A    between atoms: _366  and  _368
REMARK  132  A    between atoms: _368  and  _369
REMARK  133  A    between atoms: _368  and  _371
REMARK  134  A    between atoms: _371  and  _372
REMARK  135  A    between atoms: _377  and  _379
REMARK  136  A    between atoms: _379  and  _380
REMARK  137  A    between atoms: _379  and  _382
REMARK  138  A    between atoms: _382  and  _383
REMARK  139  A    between atoms: _383  and  _384
REMARK  140  A    between atoms: _384  and  _385
REMARK                            x       y       z     vdW  Elec       q    Type
REMARK                         _______ _______ _______ _____ _____    ______ ____
ROOT
ATOM      1  CA  ALA A   1      16.702  -3.802   7.217  0.00  0.00    +0.133 C 
ATOM      2  CB  ALA A   1      16.104  -3.575   8.571  0.00  0.00    +0.027 C 
ENDROOT
BRANCH   1   3
ATOM      3  N   ALA A   1      18.083  -3.274   7.157  0.00  0.00    -0.239 NA
ATOM      4  H   ALA A   1      18.232  -2.308   6.801  0.00  0.00    +0.142 HD
ENDBRANCH   1   3
BRANCH   1   5
ATOM      5  C   ALA A   1      15.886  -3.037   6.143  0.00  0.00    +0.224 C 
ATOM      6  O   ALA A   1      16.498  -2.528   5.197  0.00  0.00    -0.287 OA
ENDBRANCH   1   5
TORSDOF 2
REMARK  Name = ../refined-set-2016/4jsa/4jsa_pocket.pdb
REMARK  140 active torsions:
REMARK  status: ('A' for Active; 'I' for Inactive)
REMARK    1  A    between atoms: _1  and  _3
REMARK    2  A    between atoms: _3  and  _4
REMARK    3  A    between atoms: _3  and  _6
REMARK    4  A    between atoms: _6  and  _7
REMARK    5  A    between atoms: _17  and  _19
REMARK    6  A    between atoms: _19  and  _20
REMARK    7  A    between atoms: _19  and  _22
REMARK    8  A    between atoms: _22  and  _23
REMARK    9  A    between atoms: _28  and  _29
REMARK   10  A    between atoms: _31  and  _33
REMARK   11  A    between atoms: _33  and  _34
REMARK   12  A    between atoms: _33  and  _36
REMARK   13  A    between atoms: _36  and  _37
REMARK   14  A    between atoms: _40  and  _41
REMARK   15  A    between atoms: _46  and  _48
REMARK   16  A    between atoms: _48  and  _49
REMARK   17  A    between atoms: _48  and  _51
REMARK   18  A    between atoms: _51  and  _52
REMARK   19  A    between atoms: _57  and  _59
REMARK   20  A    between atoms: _59  and  _60
REMARK   21  A    between atoms: _63  and  _65
REMARK   22  A    between atoms: _65  and  _66
REMARK   23  A    between atoms: _65  and  _68
REMARK   24  A    between atoms: _68  and  _69
REMARK   25  A    between atoms: _74  and  _76
REMARK   26  A    between atoms: _76  and  _77
REMARK   27  A    between atoms: _76  and  _79
REMARK   28  A    between atoms: _79  and  _80
REMARK   29  A    between atoms: _83  and  _85
REMARK   30  A    between atoms: _85  and  _86
REMARK   31  A    between atoms: _85  and  _88
REMARK   32  A    between atoms: _88  and  _89
REMARK   33  A    between atoms: _89  and  _90
REMARK   34  A    between atoms: _95  and  _97
REMARK   35  A    between atoms: _97  and  _98
REMARK   36  A    between atoms: _97  and  _100
REMARK   37  A    between atoms: _100  and  _101
REMARK   38  A    between atoms: _107  and  _109
REMARK   39  A    between atoms: _118  and  _121
REMARK   40  A    between atoms: _121  and  _122
REMARK   41  A    between atoms: _130  and  _131
REMARK   42  A    between atoms: _139  and  _141
REMARK   43  A    between atoms: _141  and  _142
REMARK   44  A    between atoms: _141  and  _144
REMARK   45  A    between atoms: _144  and  _145
REMARK   46  A    between atoms: _145  and  _146
REMARK   47  A    between atoms: _149  and  _151
REMARK   48  A    between atoms: _151  and  _152
REMARK   49  A    between atoms: _151  and  _154
REMARK   50  A    between atoms: _154  and  _155
REMARK   51  A    between atoms: _160  and  _162
REMARK   52  A    between atoms: _162  and  _163
REMARK   53  A    between atoms: _162  and  _165
REMARK   54  A    between atoms: _165  and  _166
REMARK   55  A    between atoms: _166  and  _167
REMARK   56  A    between atoms: _170  and  _172
REMARK   57  A    between atoms: _172  and  _173
REMARK   58  A    between atoms: _172  and  _175
REMARK   59  A    between atoms: _175  and  _176
REMARK   60  A    between atoms: _179  and  _181
REMARK   61  A    between atoms: _181  and  _182
REMARK   62  A    between atoms: _181  and  _184
REMARK   63  A    between atoms: _184  and  _185
REMARK   64  A    between atoms: _186  and  ZN_394
REMARK   65  A    between atoms: _190  and  _192
REMARK   66  A    between atoms: _192  and  _193
REMARK   67  A    between atoms: _192  and  _195
REMARK   68  A    between atoms: _195  and  _196
REMARK   69  A    between atoms: _199  and  _201
REMARK   70  A    between atoms: _201  and  _202
REMARK   71  A    between atoms: _201  and  _204
REMARK   72  A    between atoms: _207  and  _209
REMARK   73  A    between atoms: _209  and  _210
REMARK   74  A    between atoms: _209  and  _212
REMARK   75  A    between atoms: _212  and  _213
REMARK   76  A    between atoms: _218  and  _220
REMARK   77  A    between atoms: _220  and  _221
REMARK   78  A    between atoms: _220  and  _223
REMARK   79  A    between atoms: _223  and  _224
REMARK   80  A    between atoms: _230  and  _232
REMARK   81  A    between atoms: _232  and  _233
REMARK   82  A    between atoms: _232  and  _235
REMARK   83  A    between atoms: _238  and  _240
REMARK   84  A    between atoms: _240  and  _241
REMARK   85  A    between atoms: _240  and  _243
REMARK   86  A    between atoms: _243  and  _244
REMARK   87  A    between atoms: _247  and  _249
REMARK   88  A    between atoms: _249  and  _250
REMARK   89  A    between atoms: _253  and  _255
REMARK   90  A    between atoms: _255  and  _256
REMARK   91  A    between atoms: _255  and  _258
REMARK   92  A    between atoms: _261  and  _263
REMARK   93  A    between atoms: _263  and  _264
REMARK   94  A    between atoms: _263  and  _266
REMARK   95  A    between atoms: _266  and  _267
REMARK   96  A    between atoms: _270  and  _272
REMARK   97  A    between atoms: _272  and  _273
REMARK   98  A    between atoms: _275  and  _277
REMARK   99  A    between atoms: _277  and  _278
REMARK  100  A    between atoms: _277  and  _280
REMARK  101  A    between atoms: _280  and  _281
REMARK  102  A    between atoms: _283  and  _285
REMARK  103  A    between atoms: _285  and  _286
REMARK  104  A    between atoms: _285  and  _288
REMARK  105  A    between atoms: _288  and  _289
REMARK  106  A    between atoms: _292  and  _294
REMARK  107  A    between atoms: _294  and  _295
REMARK  108  A    between atoms: _294  and  _297
REMARK  109  A    between atoms: _297  and  _298
REMARK  110  A    between atoms: _301  and  _303
REMARK  111  A    between atoms: _303  and  _304
REMARK  112  A    between atoms: _303  and  _306
REMARK  113  A    between atoms: _306  and  _307
REMARK  114  A    between atoms: _311  and  _312
REMARK  115  A    between atoms: _318  and  _319
REMARK  116  A    between atoms: _324  and  _326
REMARK  117  A    between atoms: _326  and  _327
REMARK  118  A    between atoms: _326  and  _329
REMARK  119  A    between atoms: _329  and  _330
REMARK  120  A    between atoms: _333  and  _335
REMARK  121  A    between atoms: _335  and  _336
REMARK  122  A    between atoms: _335  and  _338
REMARK  123  A    between atoms: _338  and  _339
REMARK  124  A    between atoms: _342  and  _344
REMARK  125  A    between atoms: _344  and  _345
REMARK  126  A    between atoms: _344  and  _347
REMARK  127  A    between atoms: _350  and  _352
REMARK  128  A    between atoms: _352  and  _353
REMARK  129  A    between atoms: _352  and  _355
REMARK  130  A    between atoms: _355  and  _356
REMARK  131  A    between atoms: _366  and  _368
REMARK  132  A    between atoms: _368  and  _369
REMARK  133  A    between atoms: _368  and  _371
REMARK  134  A    between atoms: _371  and  _372
REMARK  135  A    between atoms: _377  and  _379
REMARK  136  A    between atoms: _379  and  _380
REMARK  137  A    between atoms: _379  and  _382
REMARK  138  A    between atoms: _382  and  _383
REMARK  139  A    between atoms: _383  and  _384
REMARK  140  A    between atoms: _384  and  _385
REMARK                            x       y       z     vdW  Elec       q    Type
REMARK                         _______ _______ _______ _____ _____    ______ ____
ROOT
ATOM      1  CB  ASN A   1      12.902   2.436   6.855  0.00  0.00    +0.110 C 
ENDROOT
BRANCH   1   2
ATOM      2  CG  ASN A   1      13.999   2.274   7.767  0.00  0.00    +0.221 C 
ATOM      3  OD1 ASN A   1      14.000   1.349   8.600  0.00  0.00    -0.275 OA
ATOM      4  ND2 ASN A   1      14.987   3.142   7.667  0.00  0.00    -0.329 N 
ATOM      5 HD21 ASN A   1      15.809   3.069   8.299  0.00  0.00    +0.145 HD
ATOM      6 HD22 ASN A   1      14.944   3.899   6.956  0.00  0.00    +0.145 HD
ENDBRANCH   1   2
BRANCH   1   7
ATOM      7  CA  ASN A   1      12.045   1.145   6.726  0.00  0.00    +0.142 C 
BRANCH   7   8
ATOM      8  N   ASN A   1      12.749   0.126   5.971  0.00  0.00    -0.239 NA
ATOM      9  H   ASN A   1      13.103   0.378   5.026  0.00  0.00    +0.142 HD
ENDBRANCH   7   8
BRANCH   7  10
ATOM     10  C   ASN A   1      10.831   1.531   5.949  0.00  0.00    +0.225 C 
ATOM     11  O   ASN A   1      10.978   1.834   4.766  0.00  0.00    -0.287 OA
ENDBRANCH   7  10
ENDBRANCH   1   7
TORSDOF 4
REMARK  Name = ../refined-set-2016/4jsa/4jsa_pocket.pdb
REMARK  140 active torsions:
REMARK  status: ('A' for Active; 'I' for Inactive)
REMARK    1  A    between atoms: _1  and  _3
REMARK    2  A    between atoms: _3  and  _4
REMARK    3  A    between atoms: _3  and  _6
REMARK    4  A    between atoms: _6  and  _7
REMARK    5  A    between atoms: _17  and  _19
REMARK    6  A    between atoms: _19  and  _20
REMARK    7  A    between atoms: _19  and  _22
REMARK    8  A    between atoms: _22  and  _23
REMARK    9  A    between atoms: _28  and  _29
REMARK   10  A    between atoms: _31  and  _33
REMARK   11  A    between atoms: _33  and  _34
REMARK   12  A    between atoms: _33  and  _36
REMARK   13  A    between atoms: _36  and  _37
REMARK   14  A    between atoms: _40  and  _41
REMARK   15  A    between atoms: _46  and  _48
REMARK   16  A    between atoms: _48  and  _49
REMARK   17  A    between atoms: _48  and  _51
REMARK   18  A    between atoms: _51  and  _52
REMARK   19  A    between atoms: _57  and  _59
REMARK   20  A    between atoms: _59  and  _60
REMARK   21  A    between atoms: _63  and  _65
REMARK   22  A    between atoms: _65  and  _66
REMARK   23  A    between atoms: _65  and  _68
REMARK   24  A    between atoms: _68  and  _69
REMARK   25  A    between atoms: _74  and  _76
REMARK   26  A    between atoms: _76  and  _77
REMARK   27  A    between atoms: _76  and  _79
REMARK   28  A    between atoms: _79  and  _80
REMARK   29  A    between atoms: _83  and  _85
REMARK   30  A    between atoms: _85  and  _86
REMARK   31  A    between atoms: _85  and  _88
REMARK   32  A    between atoms: _88  and  _89
REMARK   33  A    between atoms: _89  and  _90
REMARK   34  A    between atoms: _95  and  _97
REMARK   35  A    between atoms: _97  and  _98
REMARK   36  A    between atoms: _97  and  _100
REMARK   37  A    between atoms: _100  and  _101
REMARK   38  A    between atoms: _107  and  _109
REMARK   39  A    between atoms: _118  and  _121
REMARK   40  A    between atoms: _121  and  _122
REMARK   41  A    between atoms: _130  and  _131
REMARK   42  A    between atoms: _139  and  _141
REMARK   43  A    between atoms: _141  and  _142
REMARK   44  A    between atoms: _141  and  _144
REMARK   45  A    between atoms: _144  and  _145
REMARK   46  A    between atoms: _145  and  _146
REMARK   47  A    between atoms: _149  and  _151
REMARK   48  A    between atoms: _151  and  _152
REMARK   49  A    between atoms: _151  and  _154
REMARK   50  A    between atoms: _154  and  _155
REMARK   51  A    between atoms: _160  and  _162
REMARK   52  A    between atoms: _162  and  _163
REMARK   53  A    between atoms: _162  and  _165
REMARK   54  A    between atoms: _165  and  _166
REMARK   55  A    between atoms: _166  and  _167
REMARK   56  A    between atoms: _170  and  _172
REMARK   57  A    between atoms: _172  and  _173
REMARK   58  A    between atoms: _172  and  _175
REMARK   59  A    between atoms: _175  and  _176
REMARK   60  A    between atoms: _179  and  _181
REMARK   61  A    between atoms: _181  and  _182
REMARK   62  A    between atoms: _181  and  _184
REMARK   63  A    between atoms: _184  and  _185
REMARK   64  A    between atoms: _186  and  ZN_394
REMARK   65  A    between atoms: _190  and  _192
REMARK   66  A    between atoms: _192  and  _193
REMARK   67  A    between atoms: _192  and  _195
REMARK   68  A    between atoms: _195  and  _196
REMARK   69  A    between atoms: _199  and  _201
REMARK   70  A    between atoms: _201  and  _202
REMARK   71  A    between atoms: _201  and  _204
REMARK   72  A    between atoms: _207  and  _209
REMARK   73  A    between atoms: _209  and  _210
REMARK   74  A    between atoms: _209  and  _212
REMARK   75  A    between atoms: _212  and  _213
REMARK   76  A    between atoms: _218  and  _220
REMARK   77  A    between atoms: _220  and  _221
REMARK   78  A    between atoms: _220  and  _223
REMARK   79  A    between atoms: _223  and  _224
REMARK   80  A    between atoms: _230  and  _232
REMARK   81  A    between atoms: _232  and  _233
REMARK   82  A    between atoms: _232  and  _235
REMARK   83  A    between atoms: _238  and  _240
REMARK   84  A    between atoms: _240  and  _241
REMARK   85  A    between atoms: _240  and  _243
REMARK   86  A    between atoms: _243  and  _244
REMARK   87  A    between atoms: _247  and  _249
REMARK   88  A    between atoms: _249  and  _250
REMARK   89  A    between atoms: _253  and  _255
REMARK   90  A    between atoms: _255  and  _256
REMARK   91  A    between atoms: _255  and  _258
REMARK   92  A    between atoms: _261  and  _263
REMARK   93  A    between atoms: _263  and  _264
REMARK   94  A    between atoms: _263  and  _266
REMARK   95  A    between atoms: _266  and  _267
REMARK   96  A    between atoms: _270  and  _272
REMARK   97  A    between atoms: _272  and  _273
REMARK   98  A    between atoms: _275  and  _277
REMARK   99  A    between atoms: _277  and  _278
REMARK  100  A    between atoms: _277  and  _280
REMARK  101  A    between atoms: _280  and  _281
REMARK  102  A    between atoms: _283  and  _285
REMARK  103  A    between atoms: _285  and  _286
REMARK  104  A    between atoms: _285  and  _288
REMARK  105  A    between atoms: _288  and  _289
REMARK  106  A    between atoms: _292  and  _294
REMARK  107  A    between atoms: _294  and  _295
REMARK  108  A    between atoms: _294  and  _297
REMARK  109  A    between atoms: _297  and  _298
REMARK  110  A    between atoms: _301  and  _303
REMARK  111  A    between atoms: _303  and  _304
REMARK  112  A    between atoms: _303  and  _306
REMARK  113  A    between atoms: _306  and  _307
REMARK  114  A    between atoms: _311  and  _312
REMARK  115  A    between atoms: _318  and  _319
REMARK  116  A    between atoms: _324  and  _326
REMARK  117  A    between atoms: _326  and  _327
REMARK  118  A    between atoms: _326  and  _329
REMARK  119  A    between atoms: _329  and  _330
REMARK  120  A    between atoms: _333  and  _335
REMARK  121  A    between atoms: _335  and  _336
REMARK  122  A    between atoms: _335  and  _338
REMARK  123  A    between atoms: _338  and  _339
REMARK  124  A    between atoms: _342  and  _344
REMARK  125  A    between atoms: _344  and  _345
REMARK  126  A    between atoms: _344  and  _347
REMARK  127  A    between atoms: _350  and  _352
REMARK  128  A    between atoms: _352  and  _353
REMARK  129  A    between atoms: _352  and  _355
REMARK  130  A    between atoms: _355  and  _356
REMARK  131  A    between atoms: _366  and  _368
REMARK  132  A    between atoms: _368  and  _369
REMARK  133  A    between atoms: _368  and  _371
REMARK  134  A    between atoms: _371  and  _372
REMARK  135  A    between atoms: _377  and  _379
REMARK  136  A    between atoms: _379  and  _380
REMARK  137  A    between atoms: _379  and  _382
REMARK  138  A    between atoms: _382  and  _383
REMARK  139  A    between atoms: _383  and  _384
REMARK  140  A    between atoms: _384  and  _385
REMARK                            x       y       z     vdW  Elec       q    Type
REMARK                         _______ _______ _______ _____ _____    ______ ____
ROOT
ATOM      1  C   UNK A   4      11.157  -1.274  10.685  0.00  0.00    +0.000 C 
ATOM      2  C   UNK A   4      10.965  -2.629  11.298  0.00  0.00    +0.000 C 
ATOM      3  O   UNK A   4      10.265  -2.757  12.317  0.00  0.00    +0.000 OA
ATOM      4  N   VAL A   5      11.554  -3.638  10.664  0.00  0.00    +0.000 N 
ATOM      5  CA  VAL A   5      11.524  -4.966  11.231  0.00  0.00    +0.000 C 
ATOM      6  C   VAL A   5      12.937  -5.502  11.421  0.00  0.00    +0.000 C 
ATOM      7  N   UNK A   6      13.003  -6.523  12.240  0.00  0.00    +0.000 N 
ATOM      8  H   UNK A   6      12.149  -6.760  12.784  0.00  0.00    +0.000 HD
ATOM      9  C   UNK A   6      14.217  -7.373  12.450  0.00  0.00    +0.000 C 
ATOM     10  C   UNK A   6      14.846  -7.075  13.844  0.00  0.00    +0.000 C 
ATOM     11  C   UNK A   6      15.063  -5.621  14.097  0.00  0.00    +0.000 A 
ATOM     12  C   UNK A   6      14.232  -4.622  14.407  0.00  0.00    +0.000 A 
ATOM     13  N   UNK A   6      14.969  -3.462  14.484  0.00  0.00    +0.000 N 
ATOM     14 ZN   UNK A   6      14.031  -1.625  14.861  0.00  0.00    +0.000 Zn
ATOM     15  O   UNK A   4      13.382  -1.409  13.044  0.00  0.00    +0.000 OA
ATOM     16  C   UNK A   4      12.804  -0.504  12.460  0.00  0.00    +0.000 C 
ATOM     17  O   UNK A   4      12.420   0.559  13.054  0.00  0.00    +0.000 OA
ATOM     18  C   UNK A   6      16.249  -3.779  14.303  0.00  0.00    +0.000 A 
ATOM     19  N   UNK A   6      16.327  -5.080  14.000  0.00  0.00    +0.000 NA
ATOM     20  O   VAL A   5      13.906  -5.090  10.727  0.00  0.00    +0.000 OA
ATOM     21  H   VAL A   5      12.037  -3.471   9.758  0.00  0.00    +0.000 HD
ATOM     22  C   UNK A   4      12.568  -0.707  10.986  0.00  0.00    +0.000 C 
ENDROOT
BRANCH  14  23
ATOM     23  N   UNK A   6      12.787  -2.332  16.332  0.00  0.00    +0.000 N 
ATOM     24  C   UNK A   6      13.133  -3.254  17.233  0.00  0.00    +0.000 A 
ATOM     25  N   UNK A   6      12.075  -3.619  17.946  0.00  0.00    +0.000 NA
ATOM     26  C   UNK A   6      10.987  -2.855  17.492  0.00  0.00    +0.000 A 
ATOM     27  C   UNK A   6      11.429  -2.028  16.508  0.00  0.00    +0.000 A 
BRANCH  27  28
ATOM     28  C   UNK A   6      10.674  -0.988  15.726  0.00  0.00    +0.000 C 
BRANCH  28  29
ATOM     29  C   UNK A   6       9.172  -1.343  15.656  0.00  0.00    +0.000 C 
BRANCH  29  30
ATOM     30  C   UNK A   6       8.482  -0.215  14.941  0.00  0.00    +0.000 C 
ATOM     31  N   UNK A   4       7.513   0.364  15.652  0.00  0.00    +0.000 N 
ATOM     32  H   UNK A   4       7.247  -0.071  16.559  0.00  0.00    +0.000 HD
ATOM     33  O   UNK A   6       8.784   0.136  13.768  0.00  0.00    +0.000 OA
BRANCH  31  34
ATOM     34  C   UNK A   4       6.774   1.618  15.220  0.00  0.00    +0.000 C 
BRANCH  34  35
ATOM     35  C   UNK A   4       7.388   2.731  16.031  0.00  0.00    +0.000 C 
ATOM     36  O   UNK A   4       7.316   2.743  17.265  0.00  0.00    +0.000 OA
ATOM     37  N   VAL A   5       8.146   3.637  15.315  0.00  0.00    +0.000 N 
ATOM     38  H   VAL A   5       8.092   3.613  14.277  0.00  0.00    +0.000 HD
BRANCH  37  39
ATOM     39  CA  VAL A   5       9.025   4.634  15.944  0.00  0.00    +0.000 C 
BRANCH  39  40
ATOM     40  C   VAL A   5       8.368   5.974  15.956  0.00  0.00    +0.000 C 
ATOM     41  N   UNK A   6       8.313   6.586  17.143  0.00  0.00    +0.000 N 
ATOM     42  H   UNK A   6       8.744   6.122  17.968  0.00  0.00    +0.000 HD
ATOM     43  O   VAL A   5       7.954   6.389  14.893  0.00  0.00    +0.000 OA
BRANCH  41  44
ATOM     44  C   UNK A   6       7.679   7.863  17.318  0.00  0.00    +0.000 C 
BRANCH  44  45
ATOM     45  C   UNK A   6       8.549   8.818  18.060  0.00  0.00    +0.000 C 
ATOM     46  O   UNK A   6       9.252   8.442  18.950  0.00  0.00    +0.000 OA
ENDBRANCH  44  45
BRANCH  44  47
ATOM     47  C   UNK A   6       6.359   7.722  18.204  0.00  0.00    +0.000 C 
BRANCH  47  48
ATOM     48  C   UNK A   6       5.464   6.592  17.792  0.00  0.00    +0.000 A 
ATOM     49  N   UNK A   6       5.783   5.250  18.063  0.00  0.00    +0.000 NA
ATOM     50  C   UNK A   6       4.793   4.476  17.588  0.00  0.00    +0.000 A 
ATOM     51  N   UNK A   6       3.849   5.247  17.074  0.00  0.00    +0.000 NA
ATOM     52  C   UNK A   6       4.258   6.580  17.171  0.00  0.00    +0.000 A 
ENDBRANCH  47  48
ENDBRANCH  44  47
ENDBRANCH  41  44
ENDBRANCH  39  40
BRANCH  39  53
ATOM     53  CB  VAL A   5      10.385   4.695  15.212  0.00  0.00    +0.000 C 
ATOM     54  CG2 VAL A   5      11.380   5.699  15.889  0.00  0.00    +0.000 C 
ATOM     55  CG1 VAL A   5      10.975   3.269  15.062  0.00  0.00    +0.000 C 
ENDBRANCH  39  53
ENDBRANCH  37  39
ENDBRANCH  34  35
BRANCH  34  56
ATOM     56  C   UNK A   4       5.284   1.473  15.439  0.00  0.00    +0.000 C 
BRANCH  56  57
ATOM     57  C   UNK A   4       4.688   0.467  14.462  0.00  0.00    +0.000 C 
ATOM     58  C   UNK A   4       3.630  -0.370  15.267  0.00  0.00    +0.000 C 
ATOM     59  C   UNK A   4       4.002   1.234  13.341  0.00  0.00    +0.000 C 
ENDBRANCH  56  57
ENDBRANCH  34  56
ENDBRANCH  31  34
ENDBRANCH  29  30
BRANCH  29  60
ATOM     60  N   UNK A   6       8.997  -2.605  14.888  0.00  0.00    +0.000 N 
ATOM     61  C   LEU A   2       8.451  -3.728  15.376  0.00  0.00    +0.000 C 
ATOM     62  O   LEU A   2       8.052  -3.801  16.542  0.00  0.00    +0.000 OA
ATOM     63  H   UNK A   6       9.322  -2.617  13.900  0.00  0.00    +0.000 HD
BRANCH  61  64
ATOM     64  CA  LEU A   2       8.321  -4.862  14.345  0.00  0.00    +0.000 C 
BRANCH  64  65
ATOM     65  N   LEU A   2       8.702  -6.079  15.020  0.00  0.00    +0.000 N 
ATOM     66  H   LEU A   2       8.056  -6.459  15.741  0.00  0.00    +0.000 HD
ATOM     67  C   GLU A   1       9.835  -6.751  14.777  0.00  0.00    +0.000 C 
ATOM     68  O   GLU A   1      10.695  -6.393  13.972  0.00  0.00    +0.000 OA
BRANCH  67  69
ATOM     69  CA  GLU A   1      10.015  -8.008  15.650  0.00  0.00    +0.000 C 
BRANCH  69  70
ATOM     70  N   GLU A   1      10.511  -9.062  14.776  0.00  0.00    +0.000 NA
ATOM     71  H   GLU A   1      11.124  -8.818  13.972  0.00  0.00    +0.000 HD
ENDBRANCH  69  70
BRANCH  69  72
ATOM     72  CB  GLU A   1      10.981  -7.766  16.832  0.00  0.00    +0.000 C 
BRANCH  72  73
ATOM     73  CG  GLU A   1      10.490  -6.744  17.883  0.00  0.00    +0.000 C 
BRANCH  73  74
ATOM     74  CD  GLU A   1      11.469  -6.679  19.093  0.00  0.00    +0.000 C 
ATOM     75  OE2 GLU A   1      11.627  -5.588  19.708  0.00  0.00    +0.000 OA
ATOM     76  OE1 GLU A   1      12.022  -7.718  19.412  0.00  0.00    +0.000 OA
ENDBRANCH  73  74
ENDBRANCH  72  73
ENDBRANCH  69  72
ENDBRANCH  67  69
ENDBRANCH  64  65
BRANCH  64  77
ATOM     77  CB  LEU A   2       6.823  -4.953  13.939  0.00  0.00    +0.000 C 
BRANCH  77  78
ATOM     78  CG  LEU A   2       6.038  -3.655  13.573  0.00  0.00    +0.000 C 
ATOM     79  CD2 LEU A   2       4.643  -4.078  13.272  0.00  0.00    +0.000 C 
ATOM     80  CD1 LEU A   2       6.693  -3.085  12.328  0.00  0.00    +0.000 C 
ENDBRANCH  77  78
ENDBRANCH  64  77
ENDBRANCH  61  64
ENDBRANCH  29  60
ENDBRANCH  28  29
ENDBRANCH  27  28
ENDBRANCH  14  23
BRANCH   1  82
ATOM     81  C   UNK A   3       9.504   0.588  10.415  0.00  0.00    +0.000 C 
ATOM     82  N   UNK A   4      10.048  -0.393  11.181  0.00  0.00    +0.000 N 
ATOM     83  H   UNK A   4       9.684  -0.539  12.144  0.00  0.00    +0.000 HD
ATOM     84  O   UNK A   3       9.864   0.801   9.224  0.00  0.00    +0.000 OA
BRANCH  81  85
ATOM     85  C   UNK A   3       8.460   1.349  11.089  0.00  0.00    +0.000 C 
BRANCH  85  88
ATOM     86  C   LEU A   2       8.420   3.791  11.271  0.00  0.00    +0.000 C 
ATOM     87  O   LEU A   2       8.218   3.779  12.485  0.00  0.00    +0.000 OA
ATOM     88  N   UNK A   3       8.350   2.736  10.474  0.00  0.00    +0.000 N 
ATOM     89  H   UNK A   3       8.222   2.853   9.449  0.00  0.00    +0.000 HD
BRANCH  86  90
ATOM     90  CA  LEU A   2       8.794   5.103  10.626  0.00  0.00    +0.000 C 
BRANCH  90  92
ATOM     91  C   GLU A   1       8.325   7.433  10.908  0.00  0.00    +0.000 C 
ATOM     92  N   LEU A   2       8.379   6.202  11.438  0.00  0.00    +0.000 N 
ATOM     93  H   LEU A   2       8.120   6.049  12.434  0.00  0.00    +0.000 HD
ATOM     94  O   GLU A   1       8.436   7.581   9.670  0.00  0.00    +0.000 OA
BRANCH  91  95
ATOM     95  CA  GLU A   1       8.004   8.611  11.795  0.00  0.00    +0.000 C 
BRANCH  95  96
ATOM     96  CB  GLU A   1       9.272   9.314  12.319  0.00  0.00    +0.000 C 
ATOM     97  CG2 GLU A   1      10.066   8.469  13.248  0.00  0.00    +0.000 C 
BRANCH  96  98
ATOM     98  CG1 GLU A   1      10.186   9.690  11.117  0.00  0.00    +0.000 C 
ATOM     99  CD1 GLU A   1      11.410  10.576  11.528  0.00  0.00    +0.000 C 
ENDBRANCH  96  98
ENDBRANCH  95  96
BRANCH  95 100
ATOM    100  N   GLU A   1       7.067   8.275  12.863  0.00  0.00    +0.000 NA
ATOM    101  H   GLU A   1       7.376   7.609  13.600  0.00  0.00    +0.000 HD
ENDBRANCH  95 100
ENDBRANCH  91  95
ENDBRANCH  90  92
BRANCH  90 102
ATOM    102  CB  LEU A   2      10.300   5.079  10.324  0.00  0.00    +0.000 C 
BRANCH 102 103
ATOM    103  CG  LEU A   2      11.133   4.493  11.428  0.00  0.00    +0.000 C 
BRANCH 103 104
ATOM    104  CD  LEU A   2      12.599   4.094  11.042  0.00  0.00    +0.000 C 
ATOM    105  OE1 LEU A   2      13.138   3.016  11.473  0.00  0.00    +0.000 OA
ATOM    106  NE2 LEU A   2      13.268   4.992  10.296  0.00  0.00    +0.000 N 
ATOM    107 HE21 LEU A   2      14.264   4.823  10.048  0.00  0.00    +0.000 HD
ATOM    108 HE22 LEU A   2      12.789   5.855   9.967  0.00  0.00    +0.000 HD
ENDBRANCH 103 104
ENDBRANCH 102 103
ENDBRANCH  90 102
ENDBRANCH  86  90
ENDBRANCH  85  88
BRANCH  85 109
ATOM    109  C   UNK A   3       7.109   0.637  11.231  0.00  0.00    +0.000 C 
BRANCH 109 110
ATOM    110  C   UNK A   3       6.454   0.224   9.945  0.00  0.00    +0.000 A 
ATOM    111  C   UNK A   3       5.248   0.866   9.575  0.00  0.00    +0.000 A 
ATOM    112  C   UNK A   3       4.576   0.450   8.414  0.00  0.00    +0.000 A 
ATOM    113  C   UNK A   3       5.116  -0.614   7.641  0.00  0.00    +0.000 A 
ATOM    114  C   UNK A   3       6.289  -1.239   7.998  0.00  0.00    +0.000 A 
ATOM    115  C   UNK A   3       6.936  -0.841   9.170  0.00  0.00    +0.000 A 
ENDBRANCH 109 110
ENDBRANCH  85 109
ENDBRANCH  81  85
ENDBRANCH   1  82
BRANCH   9 116
ATOM    116  C   UNK A   6      13.802  -8.806  12.383  0.00  0.00    +0.000 C 
ATOM    117  O   UNK A   6      12.690  -9.131  12.906  0.00  0.00    +0.000 OA
ENDBRANCH   9 116
BRANCH   5 118
ATOM    118  CB  VAL A   5      10.818  -5.981  10.277  0.00  0.00    +0.000 C 
BRANCH 118 119
ATOM    119  CG  VAL A   5       9.359  -5.712  10.049  0.00  0.00    +0.000 A 
ATOM    120  CD2 VAL A   5       8.431  -6.512  10.693  0.00  0.00    +0.000 A 
ATOM    121  CE2 VAL A   5       7.037  -6.358  10.459  0.00  0.00    +0.000 A 
ATOM    122  CZ  VAL A   5       6.650  -5.404   9.518  0.00  0.00    +0.000 A 
ATOM    123  CE1 VAL A   5       7.574  -4.601   8.882  0.00  0.00    +0.000 A 
ATOM    124  CD1 VAL A   5       8.949  -4.759   9.117  0.00  0.00    +0.000 A 
ENDBRANCH 118 119
ENDBRANCH   5 118
TORSDOF 42
REMARK  Name = ../refined-set-2016/4jsa/4jsa_pocket.pdb
REMARK  140 active torsions:
REMARK  status: ('A' for Active; 'I' for Inactive)
REMARK    1  A    between atoms: _1  and  _3
REMARK    2  A    between atoms: _3  and  _4
REMARK    3  A    between atoms: _3  and  _6
REMARK    4  A    between atoms: _6  and  _7
REMARK    5  A    between atoms: _17  and  _19
REMARK    6  A    between atoms: _19  and  _20
REMARK    7  A    between atoms: _19  and  _22
REMARK    8  A    between atoms: _22  and  _23
REMARK    9  A    between atoms: _28  and  _29
REMARK   10  A    between atoms: _31  and  _33
REMARK   11  A    between atoms: _33  and  _34
REMARK   12  A    between atoms: _33  and  _36
REMARK   13  A    between atoms: _36  and  _37
REMARK   14  A    between atoms: _40  and  _41
REMARK   15  A    between atoms: _46  and  _48
REMARK   16  A    between atoms: _48  and  _49
REMARK   17  A    between atoms: _48  and  _51
REMARK   18  A    between atoms: _51  and  _52
REMARK   19  A    between atoms: _57  and  _59
REMARK   20  A    between atoms: _59  and  _60
REMARK   21  A    between atoms: _63  and  _65
REMARK   22  A    between atoms: _65  and  _66
REMARK   23  A    between atoms: _65  and  _68
REMARK   24  A    between atoms: _68  and  _69
REMARK   25  A    between atoms: _74  and  _76
REMARK   26  A    between atoms: _76  and  _77
REMARK   27  A    between atoms: _76  and  _79
REMARK   28  A    between atoms: _79  and  _80
REMARK   29  A    between atoms: _83  and  _85
REMARK   30  A    between atoms: _85  and  _86
REMARK   31  A    between atoms: _85  and  _88
REMARK   32  A    between atoms: _88  and  _89
REMARK   33  A    between atoms: _89  and  _90
REMARK   34  A    between atoms: _95  and  _97
REMARK   35  A    between atoms: _97  and  _98
REMARK   36  A    between atoms: _97  and  _100
REMARK   37  A    between atoms: _100  and  _101
REMARK   38  A    between atoms: _107  and  _109
REMARK   39  A    between atoms: _118  and  _121
REMARK   40  A    between atoms: _121  and  _122
REMARK   41  A    between atoms: _130  and  _131
REMARK   42  A    between atoms: _139  and  _141
REMARK   43  A    between atoms: _141  and  _142
REMARK   44  A    between atoms: _141  and  _144
REMARK   45  A    between atoms: _144  and  _145
REMARK   46  A    between atoms: _145  and  _146
REMARK   47  A    between atoms: _149  and  _151
REMARK   48  A    between atoms: _151  and  _152
REMARK   49  A    between atoms: _151  and  _154
REMARK   50  A    between atoms: _154  and  _155
REMARK   51  A    between atoms: _160  and  _162
REMARK   52  A    between atoms: _162  and  _163
REMARK   53  A    between atoms: _162  and  _165
REMARK   54  A    between atoms: _165  and  _166
REMARK   55  A    between atoms: _166  and  _167
REMARK   56  A    between atoms: _170  and  _172
REMARK   57  A    between atoms: _172  and  _173
REMARK   58  A    between atoms: _172  and  _175
REMARK   59  A    between atoms: _175  and  _176
REMARK   60  A    between atoms: _179  and  _181
REMARK   61  A    between atoms: _181  and  _182
REMARK   62  A    between atoms: _181  and  _184
REMARK   63  A    between atoms: _184  and  _185
REMARK   64  A    between atoms: _186  and  ZN_394
REMARK   65  A    between atoms: _190  and  _192
REMARK   66  A    between atoms: _192  and  _193
REMARK   67  A    between atoms: _192  and  _195
REMARK   68  A    between atoms: _195  and  _196
REMARK   69  A    between atoms: _199  and  _201
REMARK   70  A    between atoms: _201  and  _202
REMARK   71  A    between atoms: _201  and  _204
REMARK   72  A    between atoms: _207  and  _209
REMARK   73  A    between atoms: _209  and  _210
REMARK   74  A    between atoms: _209  and  _212
REMARK   75  A    between atoms: _212  and  _213
REMARK   76  A    between atoms: _218  and  _220
REMARK   77  A    between atoms: _220  and  _221
REMARK   78  A    between atoms: _220  and  _223
REMARK   79  A    between atoms: _223  and  _224
REMARK   80  A    between atoms: _230  and  _232
REMARK   81  A    between atoms: _232  and  _233
REMARK   82  A    between atoms: _232  and  _235
REMARK   83  A    between atoms: _238  and  _240
REMARK   84  A    between atoms: _240  and  _241
REMARK   85  A    between atoms: _240  and  _243
REMARK   86  A    between atoms: _243  and  _244
REMARK   87  A    between atoms: _247  and  _249
REMARK   88  A    between atoms: _249  and  _250
REMARK   89  A    between atoms: _253  and  _255
REMARK   90  A    between atoms: _255  and  _256
REMARK   91  A    between atoms: _255  and  _258
REMARK   92  A    between atoms: _261  and  _263
REMARK   93  A    between atoms: _263  and  _264
REMARK   94  A    between atoms: _263  and  _266
REMARK   95  A    between atoms: _266  and  _267
REMARK   96  A    between atoms: _270  and  _272
REMARK   97  A    between atoms: _272  and  _273
REMARK   98  A    between atoms: _275  and  _277
REMARK   99  A    between atoms: _277  and  _278
REMARK  100  A    between atoms: _277  and  _280
REMARK  101  A    between atoms: _280  and  _281
REMARK  102  A    between atoms: _283  and  _285
REMARK  103  A    between atoms: _285  and  _286
REMARK  104  A    between atoms: _285  and  _288
REMARK  105  A    between atoms: _288  and  _289
REMARK  106  A    between atoms: _292  and  _294
REMARK  107  A    between atoms: _294  and  _295
REMARK  108  A    between atoms: _294  and  _297
REMARK  109  A    between atoms: _297  and  _298
REMARK  110  A    between atoms: _301  and  _303
REMARK  111  A    between atoms: _303  and  _304
REMARK  112  A    between atoms: _303  and  _306
REMARK  113  A    between atoms: _306  and  _307
REMARK  114  A    between atoms: _311  and  _312
REMARK  115  A    between atoms: _318  and  _319
REMARK  116  A    between atoms: _324  and  _326
REMARK  117  A    between atoms: _326  and  _327
REMARK  118  A    between atoms: _326  and  _329
REMARK  119  A    between atoms: _329  and  _330
REMARK  120  A    between atoms: _333  and  _335
REMARK  121  A    between atoms: _335  and  _336
REMARK  122  A    between atoms: _335  and  _338
REMARK  123  A    between atoms: _338  and  _339
REMARK  124  A    between atoms: _342  and  _344
REMARK  125  A    between atoms: _344  and  _345
REMARK  126  A    between atoms: _344  and  _347
REMARK  127  A    between atoms: _350  and  _352
REMARK  128  A    between atoms: _352  and  _353
REMARK  129  A    between atoms: _352  and  _355
REMARK  130  A    between atoms: _355  and  _356
REMARK  131  A    between atoms: _366  and  _368
REMARK  132  A    between atoms: _368  and  _369
REMARK  133  A    between atoms: _368  and  _371
REMARK  134  A    between atoms: _371  and  _372
REMARK  135  A    between atoms: _377  and  _379
REMARK  136  A    between atoms: _379  and  _380
REMARK  137  A    between atoms: _379  and  _382
REMARK  138  A    between atoms: _382  and  _383
REMARK  139  A    between atoms: _383  and  _384
REMARK  140  A    between atoms: _384  and  _385
REMARK                            x       y       z     vdW  Elec       q    Type
REMARK                         _______ _______ _______ _____ _____    ______ ____
ROOT
ATOM      1  C   GLU A   1      15.167  -8.518  21.007  0.00  0.00    +0.238 C 
ATOM      2  O   GLU A   1      15.968  -9.090  21.776  0.00  0.00    -0.274 OA
ATOM      3  N   HIS A   2      13.976  -8.052  21.455  0.00  0.00    -0.298 N 
ATOM      4  H   HIS A   2      13.373  -7.456  20.852  0.00  0.00    +0.150 HD
ENDROOT
BRANCH   1   5
ATOM      5  CA  GLU A   1      15.475  -8.357  19.534  0.00  0.00    +0.145 C 
BRANCH   5   6
ATOM      6  N   GLU A   1      14.415  -9.065  18.754  0.00  0.00    -0.238 NA
ATOM      7  H   GLU A   1      13.538  -8.562  18.508  0.00  0.00    +0.142 HD
ENDBRANCH   5   6
BRANCH   5   8
ATOM      8  CB  GLU A   1      15.529  -6.864  19.131  0.00  0.00    +0.038 C 
BRANCH   8   9
ATOM      9  CG  GLU A   1      15.889  -6.785  17.625  0.00  0.00    +0.116 C 
BRANCH   9  10
ATOM     10  CD  GLU A   1      16.501  -5.492  17.303  0.00  0.00    +0.365 C 
ATOM     11  OE2 GLU A   1      15.928  -4.424  17.397  0.00  0.00    -0.246 OA
ATOM     12  OE1 GLU A   1      17.715  -5.570  16.954  0.00  0.00    -0.246 OA
ENDBRANCH   9  10
ENDBRANCH   8   9
ENDBRANCH   5   8
ENDBRANCH   1   5
BRANCH   3  13
ATOM     13  CA  HIS A   2      13.566  -8.410  22.803  0.00  0.00    +0.143 C 
BRANCH  13  14
ATOM     14  C   HIS A   2      13.227  -9.884  22.812  0.00  0.00    +0.227 C 
ATOM     15  O   HIS A   2      12.854 -10.518  21.798  0.00  0.00    -0.286 OA
ENDBRANCH  13  14
BRANCH  13  16
ATOM     16  CB  HIS A   2      12.303  -7.587  23.152  0.00  0.00    +0.075 C 
BRANCH  16  17
ATOM     17  CG  HIS A   2      12.633  -6.130  23.303  0.00  0.00    +0.082 A 
ATOM     18  CD2 HIS A   2      13.043  -5.407  24.392  0.00  0.00    +0.115 A 
ATOM     19  NE2 HIS A   2      13.252  -4.120  23.972  0.00  0.00    -0.221 NA
ATOM     20  CE1 HIS A   2      12.982  -4.049  22.689  0.00  0.00    +0.199 A 
ATOM     21  ND1 HIS A   2      12.633  -5.250  22.240  0.00  0.00    -0.227 NA
ENDBRANCH  16  17
ENDBRANCH  13  16
ENDBRANCH   3  13
TORSDOF 9
REMARK  Name = ../refined-set-2016/4jsa/4jsa_pocket.pdb
REMARK  140 active torsions:
REMARK  status: ('A' for Active; 'I' for Inactive)
REMARK    1  A    between atoms: _1  and  _3
REMARK    2  A    between atoms: _3  and  _4
REMARK    3  A    between atoms: _3  and  _6
REMARK    4  A    between atoms: _6  and  _7
REMARK    5  A    between atoms: _17  and  _19
REMARK    6  A    between atoms: _19  and  _20
REMARK    7  A    between atoms: _19  and  _22
REMARK    8  A    between atoms: _22  and  _23
REMARK    9  A    between atoms: _28  and  _29
REMARK   10  A    between atoms: _31  and  _33
REMARK   11  A    between atoms: _33  and  _34
REMARK   12  A    between atoms: _33  and  _36
REMARK   13  A    between atoms: _36  and  _37
REMARK   14  A    between atoms: _40  and  _41
REMARK   15  A    between atoms: _46  and  _48
REMARK   16  A    between atoms: _48  and  _49
REMARK   17  A    between atoms: _48  and  _51
REMARK   18  A    between atoms: _51  and  _52
REMARK   19  A    between atoms: _57  and  _59
REMARK   20  A    between atoms: _59  and  _60
REMARK   21  A    between atoms: _63  and  _65
REMARK   22  A    between atoms: _65  and  _66
REMARK   23  A    between atoms: _65  and  _68
REMARK   24  A    between atoms: _68  and  _69
REMARK   25  A    between atoms: _74  and  _76
REMARK   26  A    between atoms: _76  and  _77
REMARK   27  A    between atoms: _76  and  _79
REMARK   28  A    between atoms: _79  and  _80
REMARK   29  A    between atoms: _83  and  _85
REMARK   30  A    between atoms: _85  and  _86
REMARK   31  A    between atoms: _85  and  _88
REMARK   32  A    between atoms: _88  and  _89
REMARK   33  A    between atoms: _89  and  _90
REMARK   34  A    between atoms: _95  and  _97
REMARK   35  A    between atoms: _97  and  _98
REMARK   36  A    between atoms: _97  and  _100
REMARK   37  A    between atoms: _100  and  _101
REMARK   38  A    between atoms: _107  and  _109
REMARK   39  A    between atoms: _118  and  _121
REMARK   40  A    between atoms: _121  and  _122
REMARK   41  A    between atoms: _130  and  _131
REMARK   42  A    between atoms: _139  and  _141
REMARK   43  A    between atoms: _141  and  _142
REMARK   44  A    between atoms: _141  and  _144
REMARK   45  A    between atoms: _144  and  _145
REMARK   46  A    between atoms: _145  and  _146
REMARK   47  A    between atoms: _149  and  _151
REMARK   48  A    between atoms: _151  and  _152
REMARK   49  A    between atoms: _151  and  _154
REMARK   50  A    between atoms: _154  and  _155
REMARK   51  A    between atoms: _160  and  _162
REMARK   52  A    between atoms: _162  and  _163
REMARK   53  A    between atoms: _162  and  _165
REMARK   54  A    between atoms: _165  and  _166
REMARK   55  A    between atoms: _166  and  _167
REMARK   56  A    between atoms: _170  and  _172
REMARK   57  A    between atoms: _172  and  _173
REMARK   58  A    between atoms: _172  and  _175
REMARK   59  A    between atoms: _175  and  _176
REMARK   60  A    between atoms: _179  and  _181
REMARK   61  A    between atoms: _181  and  _182
REMARK   62  A    between atoms: _181  and  _184
REMARK   63  A    between atoms: _184  and  _185
REMARK   64  A    between atoms: _186  and  ZN_394
REMARK   65  A    between atoms: _190  and  _192
REMARK   66  A    between atoms: _192  and  _193
REMARK   67  A    between atoms: _192  and  _195
REMARK   68  A    between atoms: _195  and  _196
REMARK   69  A    between atoms: _199  and  _201
REMARK   70  A    between atoms: _201  and  _202
REMARK   71  A    between atoms: _201  and  _204
REMARK   72  A    between atoms: _207  and  _209
REMARK   73  A    between atoms: _209  and  _210
REMARK   74  A    between atoms: _209  and  _212
REMARK   75  A    between atoms: _212  and  _213
REMARK   76  A    between atoms: _218  and  _220
REMARK   77  A    between atoms: _220  and  _221
REMARK   78  A    between atoms: _220  and  _223
REMARK   79  A    between atoms: _223  and  _224
REMARK   80  A    between atoms: _230  and  _232
REMARK   81  A    between atoms: _232  and  _233
REMARK   82  A    between atoms: _232  and  _235
REMARK   83  A    between atoms: _238  and  _240
REMARK   84  A    between atoms: _240  and  _241
REMARK   85  A    between atoms: _240  and  _243
REMARK   86  A    between atoms: _243  and  _244
REMARK   87  A    between atoms: _247  and  _249
REMARK   88  A    between atoms: _249  and  _250
REMARK   89  A    between atoms: _253  and  _255
REMARK   90  A    between atoms: _255  and  _256
REMARK   91  A    between atoms: _255  and  _258
REMARK   92  A    between atoms: _261  and  _263
REMARK   93  A    between atoms: _263  and  _264
REMARK   94  A    between atoms: _263  and  _266
REMARK   95  A    between atoms: _266  and  _267
REMARK   96  A    between atoms: _270  and  _272
REMARK   97  A    between atoms: _272  and  _273
REMARK   98  A    between atoms: _275  and  _277
REMARK   99  A    between atoms: _277  and  _278
REMARK  100  A    between atoms: _277  and  _280
REMARK  101  A    between atoms: _280  and  _281
REMARK  102  A    between atoms: _283  and  _285
REMARK  103  A    between atoms: _285  and  _286
REMARK  104  A    between atoms: _285  and  _288
REMARK  105  A    between atoms: _288  and  _289
REMARK  106  A    between atoms: _292  and  _294
REMARK  107  A    between atoms: _294  and  _295
REMARK  108  A    between atoms: _294  and  _297
REMARK  109  A    between atoms: _297  and  _298
REMARK  110  A    between atoms: _301  and  _303
REMARK  111  A    between atoms: _303  and  _304
REMARK  112  A    between atoms: _303  and  _306
REMARK  113  A    between atoms: _306  and  _307
REMARK  114  A    between atoms: _311  and  _312
REMARK  115  A    between atoms: _318  and  _319
REMARK  116  A    between atoms: _324  and  _326
REMARK  117  A    between atoms: _326  and  _327
REMARK  118  A    between atoms: _326  and  _329
REMARK  119  A    between atoms: _329  and  _330
REMARK  120  A    between atoms: _333  and  _335
REMARK  121  A    between atoms: _335  and  _336
REMARK  122  A    between atoms: _335  and  _338
REMARK  123  A    between atoms: _338  and  _339
REMARK  124  A    between atoms: _342  and  _344
REMARK  125  A    between atoms: _344  and  _345
REMARK  126  A    between atoms: _344  and  _347
REMARK  127  A    between atoms: _350  and  _352
REMARK  128  A    between atoms: _352  and  _353
REMARK  129  A    between atoms: _352  and  _355
REMARK  130  A    between atoms: _355  and  _356
REMARK  131  A    between atoms: _366  and  _368
REMARK  132  A    between atoms: _368  and  _369
REMARK  133  A    between atoms: _368  and  _371
REMARK  134  A    between atoms: _371  and  _372
REMARK  135  A    between atoms: _377  and  _379
REMARK  136  A    between atoms: _379  and  _380
REMARK  137  A    between atoms: _379  and  _382
REMARK  138  A    between atoms: _382  and  _383
REMARK  139  A    between atoms: _383  and  _384
REMARK  140  A    between atoms: _384  and  _385
REMARK                            x       y       z     vdW  Elec       q    Type
REMARK                         _______ _______ _______ _____ _____    ______ ____
ROOT
ATOM      1  CB  PHE A   1      13.187  12.621  14.045  0.00  0.00    +0.051 C 
ENDROOT
BRANCH   1   2
ATOM      2  CG  PHE A   1      13.850  11.315  14.332  0.00  0.00    -0.020 A 
ATOM      3  CD2 PHE A   1      13.128  10.321  14.973  0.00  0.00    -0.004 A 
ATOM      4  CE2 PHE A   1      13.729   9.119  15.210  0.00  0.00    -0.000 A 
ATOM      5  CZ  PHE A   1      15.091   8.872  14.925  0.00  0.00    -0.000 A 
ATOM      6  CE1 PHE A   1      15.832   9.898  14.256  0.00  0.00    -0.000 A 
ATOM      7  CD1 PHE A   1      15.203  11.122  14.019  0.00  0.00    -0.004 A 
ENDBRANCH   1   2
BRANCH   1   8
ATOM      8  CA  PHE A   1      13.251  13.648  15.208  0.00  0.00    +0.137 C 
BRANCH   8   9
ATOM      9  N   PHE A   1      12.627  14.901  14.807  0.00  0.00    -0.239 NA
ATOM     10  H   PHE A   1      12.276  15.011  13.834  0.00  0.00    +0.142 HD
ENDBRANCH   8   9
BRANCH   8  11
ATOM     11  C   PHE A   1      14.683  13.920  15.653  0.00  0.00    +0.224 C 
ATOM     12  O   PHE A   1      15.188  13.336  16.634  0.00  0.00    -0.287 OA
ENDBRANCH   8  11
ENDBRANCH   1   8
TORSDOF 4
REMARK  Name = ../refined-set-2016/4jsa/4jsa_pocket.pdb
REMARK  140 active torsions:
REMARK  status: ('A' for Active; 'I' for Inactive)
REMARK    1  A    between atoms: _1  and  _3
REMARK    2  A    between atoms: _3  and  _4
REMARK    3  A    between atoms: _3  and  _6
REMARK    4  A    between atoms: _6  and  _7
REMARK    5  A    between atoms: _17  and  _19
REMARK    6  A    between atoms: _19  and  _20
REMARK    7  A    between atoms: _19  and  _22
REMARK    8  A    between atoms: _22  and  _23
REMARK    9  A    between atoms: _28  and  _29
REMARK   10  A    between atoms: _31  and  _33
REMARK   11  A    between atoms: _33  and  _34
REMARK   12  A    between atoms: _33  and  _36
REMARK   13  A    between atoms: _36  and  _37
REMARK   14  A    between atoms: _40  and  _41
REMARK   15  A    between atoms: _46  and  _48
REMARK   16  A    between atoms: _48  and  _49
REMARK   17  A    between atoms: _48  and  _51
REMARK   18  A    between atoms: _51  and  _52
REMARK   19  A    between atoms: _57  and  _59
REMARK   20  A    between atoms: _59  and  _60
REMARK   21  A    between atoms: _63  and  _65
REMARK   22  A    between atoms: _65  and  _66
REMARK   23  A    between atoms: _65  and  _68
REMARK   24  A    between atoms: _68  and  _69
REMARK   25  A    between atoms: _74  and  _76
REMARK   26  A    between atoms: _76  and  _77
REMARK   27  A    between atoms: _76  and  _79
REMARK   28  A    between atoms: _79  and  _80
REMARK   29  A    between atoms: _83  and  _85
REMARK   30  A    between atoms: _85  and  _86
REMARK   31  A    between atoms: _85  and  _88
REMARK   32  A    between atoms: _88  and  _89
REMARK   33  A    between atoms: _89  and  _90
REMARK   34  A    between atoms: _95  and  _97
REMARK   35  A    between atoms: _97  and  _98
REMARK   36  A    between atoms: _97  and  _100
REMARK   37  A    between atoms: _100  and  _101
REMARK   38  A    between atoms: _107  and  _109
REMARK   39  A    between atoms: _118  and  _121
REMARK   40  A    between atoms: _121  and  _122
REMARK   41  A    between atoms: _130  and  _131
REMARK   42  A    between atoms: _139  and  _141
REMARK   43  A    between atoms: _141  and  _142
REMARK   44  A    between atoms: _141  and  _144
REMARK   45  A    between atoms: _144  and  _145
REMARK   46  A    between atoms: _145  and  _146
REMARK   47  A    between atoms: _149  and  _151
REMARK   48  A    between atoms: _151  and  _152
REMARK   49  A    between atoms: _151  and  _154
REMARK   50  A    between atoms: _154  and  _155
REMARK   51  A    between atoms: _160  and  _162
REMARK   52  A    between atoms: _162  and  _163
REMARK   53  A    between atoms: _162  and  _165
REMARK   54  A    between atoms: _165  and  _166
REMARK   55  A    between atoms: _166  and  _167
REMARK   56  A    between atoms: _170  and  _172
REMARK   57  A    between atoms: _172  and  _173
REMARK   58  A    between atoms: _172  and  _175
REMARK   59  A    between atoms: _175  and  _176
REMARK   60  A    between atoms: _179  and  _181
REMARK   61  A    between atoms: _181  and  _182
REMARK   62  A    between atoms: _181  and  _184
REMARK   63  A    between atoms: _184  and  _185
REMARK   64  A    between atoms: _186  and  ZN_394
REMARK   65  A    between atoms: _190  and  _192
REMARK   66  A    between atoms: _192  and  _193
REMARK   67  A    between atoms: _192  and  _195
REMARK   68  A    between atoms: _195  and  _196
REMARK   69  A    between atoms: _199  and  _201
REMARK   70  A    between atoms: _201  and  _202
REMARK   71  A    between atoms: _201  and  _204
REMARK   72  A    between atoms: _207  and  _209
REMARK   73  A    between atoms: _209  and  _210
REMARK   74  A    between atoms: _209  and  _212
REMARK   75  A    between atoms: _212  and  _213
REMARK   76  A    between atoms: _218  and  _220
REMARK   77  A    between atoms: _220  and  _221
REMARK   78  A    between atoms: _220  and  _223
REMARK   79  A    between atoms: _223  and  _224
REMARK   80  A    between atoms: _230  and  _232
REMARK   81  A    between atoms: _232  and  _233
REMARK   82  A    between atoms: _232  and  _235
REMARK   83  A    between atoms: _238  and  _240
REMARK   84  A    between atoms: _240  and  _241
REMARK   85  A    between atoms: _240  and  _243
REMARK   86  A    between atoms: _243  and  _244
REMARK   87  A    between atoms: _247  and  _249
REMARK   88  A    between atoms: _249  and  _250
REMARK   89  A    between atoms: _253  and  _255
REMARK   90  A    between atoms: _255  and  _256
REMARK   91  A    between atoms: _255  and  _258
REMARK   92  A    between atoms: _261  and  _263
REMARK   93  A    between atoms: _263  and  _264
REMARK   94  A    between atoms: _263  and  _266
REMARK   95  A    between atoms: _266  and  _267
REMARK   96  A    between atoms: _270  and  _272
REMARK   97  A    between atoms: _272  and  _273
REMARK   98  A    between atoms: _275  and  _277
REMARK   99  A    between atoms: _277  and  _278
REMARK  100  A    between atoms: _277  and  _280
REMARK  101  A    between atoms: _280  and  _281
REMARK  102  A    between atoms: _283  and  _285
REMARK  103  A    between atoms: _285  and  _286
REMARK  104  A    between atoms: _285  and  _288
REMARK  105  A    between atoms: _288  and  _289
REMARK  106  A    between atoms: _292  and  _294
REMARK  107  A    between atoms: _294  and  _295
REMARK  108  A    between atoms: _294  and  _297
REMARK  109  A    between atoms: _297  and  _298
REMARK  110  A    between atoms: _301  and  _303
REMARK  111  A    between atoms: _303  and  _304
REMARK  112  A    between atoms: _303  and  _306
REMARK  113  A    between atoms: _306  and  _307
REMARK  114  A    between atoms: _311  and  _312
REMARK  115  A    between atoms: _318  and  _319
REMARK  116  A    between atoms: _324  and  _326
REMARK  117  A    between atoms: _326  and  _327
REMARK  118  A    between atoms: _326  and  _329
REMARK  119  A    between atoms: _329  and  _330
REMARK  120  A    between atoms: _333  and  _335
REMARK  121  A    between atoms: _335  and  _336
REMARK  122  A    between atoms: _335  and  _338
REMARK  123  A    between atoms: _338  and  _339
REMARK  124  A    between atoms: _342  and  _344
REMARK  125  A    between atoms: _344  and  _345
REMARK  126  A    between atoms: _344  and  _347
REMARK  127  A    between atoms: _350  and  _352
REMARK  128  A    between atoms: _352  and  _353
REMARK  129  A    between atoms: _352  and  _355
REMARK  130  A    between atoms: _355  and  _356
REMARK  131  A    between atoms: _366  and  _368
REMARK  132  A    between atoms: _368  and  _369
REMARK  133  A    between atoms: _368  and  _371
REMARK  134  A    between atoms: _371  and  _372
REMARK  135  A    between atoms: _377  and  _379
REMARK  136  A    between atoms: _379  and  _380
REMARK  137  A    between atoms: _379  and  _382
REMARK  138  A    between atoms: _382  and  _383
REMARK  139  A    between atoms: _383  and  _384
REMARK  140  A    between atoms: _384  and  _385
REMARK                            x       y       z     vdW  Elec       q    Type
REMARK                         _______ _______ _______ _____ _____    ______ ____
ROOT
ATOM      1  CA  VAL A   1      17.112  11.806  19.812  0.00  0.00    +0.101 C 
ENDROOT
BRANCH   1   2
ATOM      2  CB  VAL A   1      17.665  11.010  18.602  0.00  0.00    +0.018 C 
ATOM      3  CG2 VAL A   1      16.510  10.248  17.920  0.00  0.00    +0.002 C 
ATOM      4  CG1 VAL A   1      18.510  11.833  17.609  0.00  0.00    +0.002 C 
ENDBRANCH   1   2
BRANCH   1   5
ATOM      5  N   VAL A   1      16.140  12.874  19.457  0.00  0.00    -0.244 NA
ATOM      6  H   VAL A   1      16.099  13.262  18.493  0.00  0.00    +0.141 HD
ENDBRANCH   1   5
BRANCH   1   7
ATOM      7  C   VAL A   1      18.258  12.297  20.660  0.00  0.00    +0.199 C 
ATOM      8  O   VAL A   1      18.913  11.332  21.204  0.00  0.00    -0.219 OA
ENDBRANCH   1   7
TORSDOF 3
REMARK  Name = ../refined-set-2016/4jsa/4jsa_pocket.pdb
REMARK  140 active torsions:
REMARK  status: ('A' for Active; 'I' for Inactive)
REMARK    1  A    between atoms: _1  and  _3
REMARK    2  A    between atoms: _3  and  _4
REMARK    3  A    between atoms: _3  and  _6
REMARK    4  A    between atoms: _6  and  _7
REMARK    5  A    between atoms: _17  and  _19
REMARK    6  A    between atoms: _19  and  _20
REMARK    7  A    between atoms: _19  and  _22
REMARK    8  A    between atoms: _22  and  _23
REMARK    9  A    between atoms: _28  and  _29
REMARK   10  A    between atoms: _31  and  _33
REMARK   11  A    between atoms: _33  and  _34
REMARK   12  A    between atoms: _33  and  _36
REMARK   13  A    between atoms: _36  and  _37
REMARK   14  A    between atoms: _40  and  _41
REMARK   15  A    between atoms: _46  and  _48
REMARK   16  A    between atoms: _48  and  _49
REMARK   17  A    between atoms: _48  and  _51
REMARK   18  A    between atoms: _51  and  _52
REMARK   19  A    between atoms: _57  and  _59
REMARK   20  A    between atoms: _59  and  _60
REMARK   21  A    between atoms: _63  and  _65
REMARK   22  A    between atoms: _65  and  _66
REMARK   23  A    between atoms: _65  and  _68
REMARK   24  A    between atoms: _68  and  _69
REMARK   25  A    between atoms: _74  and  _76
REMARK   26  A    between atoms: _76  and  _77
REMARK   27  A    between atoms: _76  and  _79
REMARK   28  A    between atoms: _79  and  _80
REMARK   29  A    between atoms: _83  and  _85
REMARK   30  A    between atoms: _85  and  _86
REMARK   31  A    between atoms: _85  and  _88
REMARK   32  A    between atoms: _88  and  _89
REMARK   33  A    between atoms: _89  and  _90
REMARK   34  A    between atoms: _95  and  _97
REMARK   35  A    between atoms: _97  and  _98
REMARK   36  A    between atoms: _97  and  _100
REMARK   37  A    between atoms: _100  and  _101
REMARK   38  A    between atoms: _107  and  _109
REMARK   39  A    between atoms: _118  and  _121
REMARK   40  A    between atoms: _121  and  _122
REMARK   41  A    between atoms: _130  and  _131
REMARK   42  A    between atoms: _139  and  _141
REMARK   43  A    between atoms: _141  and  _142
REMARK   44  A    between atoms: _141  and  _144
REMARK   45  A    between atoms: _144  and  _145
REMARK   46  A    between atoms: _145  and  _146
REMARK   47  A    between atoms: _149  and  _151
REMARK   48  A    between atoms: _151  and  _152
REMARK   49  A    between atoms: _151  and  _154
REMARK   50  A    between atoms: _154  and  _155
REMARK   51  A    between atoms: _160  and  _162
REMARK   52  A    between atoms: _162  and  _163
REMARK   53  A    between atoms: _162  and  _165
REMARK   54  A    between atoms: _165  and  _166
REMARK   55  A    between atoms: _166  and  _167
REMARK   56  A    between atoms: _170  and  _172
REMARK   57  A    between atoms: _172  and  _173
REMARK   58  A    between atoms: _172  and  _175
REMARK   59  A    between atoms: _175  and  _176
REMARK   60  A    between atoms: _179  and  _181
REMARK   61  A    between atoms: _181  and  _182
REMARK   62  A    between atoms: _181  and  _184
REMARK   63  A    between atoms: _184  and  _185
REMARK   64  A    between atoms: _186  and  ZN_394
REMARK   65  A    between atoms: _190  and  _192
REMARK   66  A    between atoms: _192  and  _193
REMARK   67  A    between atoms: _192  and  _195
REMARK   68  A    between atoms: _195  and  _196
REMARK   69  A    between atoms: _199  and  _201
REMARK   70  A    between atoms: _201  and  _202
REMARK   71  A    between atoms: _201  and  _204
REMARK   72  A    between atoms: _207  and  _209
REMARK   73  A    between atoms: _209  and  _210
REMARK   74  A    between atoms: _209  and  _212
REMARK   75  A    between atoms: _212  and  _213
REMARK   76  A    between atoms: _218  and  _220
REMARK   77  A    between atoms: _220  and  _221
REMARK   78  A    between atoms: _220  and  _223
REMARK   79  A    between atoms: _223  and  _224
REMARK   80  A    between atoms: _230  and  _232
REMARK   81  A    between atoms: _232  and  _233
REMARK   82  A    between atoms: _232  and  _235
REMARK   83  A    between atoms: _238  and  _240
REMARK   84  A    between atoms: _240  and  _241
REMARK   85  A    between atoms: _240  and  _243
REMARK   86  A    between atoms: _243  and  _244
REMARK   87  A    between atoms: _247  and  _249
REMARK   88  A    between atoms: _249  and  _250
REMARK   89  A    between atoms: _253  and  _255
REMARK   90  A    between atoms: _255  and  _256
REMARK   91  A    between atoms: _255  and  _258
REMARK   92  A    between atoms: _261  and  _263
REMARK   93  A    between atoms: _263  and  _264
REMARK   94  A    between atoms: _263  and  _266
REMARK   95  A    between atoms: _266  and  _267
REMARK   96  A    between atoms: _270  and  _272
REMARK   97  A    between atoms: _272  and  _273
REMARK   98  A    between atoms: _275  and  _277
REMARK   99  A    between atoms: _277  and  _278
REMARK  100  A    between atoms: _277  and  _280
REMARK  101  A    between atoms: _280  and  _281
REMARK  102  A    between atoms: _283  and  _285
REMARK  103  A    between atoms: _285  and  _286
REMARK  104  A    between atoms: _285  and  _288
REMARK  105  A    between atoms: _288  and  _289
REMARK  106  A    between atoms: _292  and  _294
REMARK  107  A    between atoms: _294  and  _295
REMARK  108  A    between atoms: _294  and  _297
REMARK  109  A    between atoms: _297  and  _298
REMARK  110  A    between atoms: _301  and  _303
REMARK  111  A    between atoms: _303  and  _304
REMARK  112  A    between atoms: _303  and  _306
REMARK  113  A    between atoms: _306  and  _307
REMARK  114  A    between atoms: _311  and  _312
REMARK  115  A    between atoms: _318  and  _319
REMARK  116  A    between atoms: _324  and  _326
REMARK  117  A    between atoms: _326  and  _327
REMARK  118  A    between atoms: _326  and  _329
REMARK  119  A    between atoms: _329  and  _330
REMARK  120  A    between atoms: _333  and  _335
REMARK  121  A    between atoms: _335  and  _336
REMARK  122  A    between atoms: _335  and  _338
REMARK  123  A    between atoms: _338  and  _339
REMARK  124  A    between atoms: _342  and  _344
REMARK  125  A    between atoms: _344  and  _345
REMARK  126  A    between atoms: _344  and  _347
REMARK  127  A    between atoms: _350  and  _352
REMARK  128  A    between atoms: _352  and  _353
REMARK  129  A    between atoms: _352  and  _355
REMARK  130  A    between atoms: _355  and  _356
REMARK  131  A    between atoms: _366  and  _368
REMARK  132  A    between atoms: _368  and  _369
REMARK  133  A    between atoms: _368  and  _371
REMARK  134  A    between atoms: _371  and  _372
REMARK  135  A    between atoms: _377  and  _379
REMARK  136  A    between atoms: _379  and  _380
REMARK  137  A    between atoms: _379  and  _382
REMARK  138  A    between atoms: _382  and  _383
REMARK  139  A    between atoms: _383  and  _384
REMARK  140  A    between atoms: _384  and  _385
REMARK                            x       y       z     vdW  Elec       q    Type
REMARK                         _______ _______ _______ _____ _____    ______ ____
ROOT
ATOM      1  CA  VAL A   3       8.985   2.708  20.185  0.00  0.00    +0.149 C 
ENDROOT
BRANCH   1   3
ATOM      2  C   ALA A   2       8.630   5.003  20.904  0.00  0.00    +0.241 C 
ATOM      3  N   VAL A   3       9.044   3.772  21.210  0.00  0.00    -0.297 N 
ATOM      4  H   VAL A   3       9.405   3.562  22.162  0.00  0.00    +0.150 HD
ATOM      5  O   ALA A   2       8.264   5.343  19.753  0.00  0.00    -0.273 OA
BRANCH   2   6
ATOM      6  CA  ALA A   2       8.709   5.987  21.998  0.00  0.00    +0.149 C 
ATOM      7  CB  ALA A   2       7.346   6.451  22.458  0.00  0.00    +0.031 C 
BRANCH   6  10
ATOM      8  C   LEU A   1      10.466   7.646  22.182  0.00  0.00    +0.238 C 
ATOM      9  O   LEU A   1      10.724   7.374  23.356  0.00  0.00    -0.274 OA
ATOM     10  N   ALA A   2       9.465   7.096  21.474  0.00  0.00    -0.297 N 
ATOM     11  H   ALA A   2       9.233   7.476  20.534  0.00  0.00    +0.150 HD
BRANCH   8  12
ATOM     12  CA  LEU A   1      11.395   8.589  21.386  0.00  0.00    +0.145 C 
BRANCH  12  13
ATOM     13  N   LEU A   1      12.062   9.576  22.251  0.00  0.00    -0.238 NA
ATOM     14  H   LEU A   1      12.662   9.242  23.032  0.00  0.00    +0.142 HD
ENDBRANCH  12  13
BRANCH  12  15
ATOM     15  CB  LEU A   1      12.455   7.731  20.673  0.00  0.00    +0.026 C 
BRANCH  15  16
ATOM     16  CG  LEU A   1      13.268   8.512  19.681  0.00  0.00    +0.002 C 
ATOM     17  CD2 LEU A   1      14.169   7.503  18.904  0.00  0.00    +0.000 C 
ATOM     18  CD1 LEU A   1      12.659   9.445  18.692  0.00  0.00    +0.000 C 
ENDBRANCH  15  16
ENDBRANCH  12  15
ENDBRANCH   8  12
ENDBRANCH   6  10
ENDBRANCH   2   6
ENDBRANCH   1   3
BRANCH   1  19
ATOM     19  C   VAL A   3       8.032   1.649  20.655  0.00  0.00    +0.241 C 
ATOM     20  O   VAL A   3       8.150   1.107  21.767  0.00  0.00    -0.273 OA
ATOM     21  N   LEU A   4       7.007   1.418  19.857  0.00  0.00    -0.297 N 
ATOM     22  H   LEU A   4       6.872   2.050  19.042  0.00  0.00    +0.150 HD
BRANCH  21  23
ATOM     23  CA  LEU A   4       6.052   0.333  20.045  0.00  0.00    +0.149 C 
BRANCH  23  24
ATOM     24  C   LEU A   4       6.620  -0.898  19.383  0.00  0.00    +0.241 C 
ATOM     25  N   GLY A   5       6.892  -1.925  20.170  0.00  0.00    -0.296 N 
ATOM     26  H   GLY A   5       6.685  -1.841  21.186  0.00  0.00    +0.150 HD
ATOM     27  O   LEU A   4       6.765  -0.961  18.187  0.00  0.00    -0.273 OA
BRANCH  25  28
ATOM     28  CA  GLY A   5       7.477  -3.187  19.670  0.00  0.00    +0.163 C 
BRANCH  28  29
ATOM     29  C   GLY A   5       6.486  -4.314  19.592  0.00  0.00    +0.229 C 
ATOM     30  O   GLY A   5       5.729  -4.472  20.573  0.00  0.00    -0.286 OA
ENDBRANCH  28  29
ENDBRANCH  25  28
ENDBRANCH  23  24
BRANCH  23  31
ATOM     31  CB  LEU A   4       4.598   0.738  19.482  0.00  0.00    +0.029 C 
BRANCH  31  32
ATOM     32  CG  LEU A   4       3.526  -0.299  19.602  0.00  0.00    +0.002 C 
ATOM     33  CD2 LEU A   4       3.189  -0.434  21.019  0.00  0.00    +0.000 C 
ATOM     34  CD1 LEU A   4       2.300   0.358  18.880  0.00  0.00    +0.000 C 
ENDBRANCH  31  32
ENDBRANCH  23  31
ENDBRANCH  21  23
ENDBRANCH   1  19
BRANCH   1  35
ATOM     35  CB  VAL A   3      10.360   2.092  19.866  0.00  0.00    +0.027 C 
ATOM     36  CG2 VAL A   3      11.296   3.213  19.375  0.00  0.00    +0.002 C 
ATOM     37  CG1 VAL A   3      10.175   1.064  18.699  0.00  0.00    +0.002 C 
ENDBRANCH   1  35
TORSDOF 15
REMARK  Name = ../refined-set-2016/4jsa/4jsa_pocket.pdb
REMARK  140 active torsions:
REMARK  status: ('A' for Active; 'I' for Inactive)
REMARK    1  A    between atoms: _1  and  _3
REMARK    2  A    between atoms: _3  and  _4
REMARK    3  A    between atoms: _3  and  _6
REMARK    4  A    between atoms: _6  and  _7
REMARK    5  A    between atoms: _17  and  _19
REMARK    6  A    between atoms: _19  and  _20
REMARK    7  A    between atoms: _19  and  _22
REMARK    8  A    between atoms: _22  and  _23
REMARK    9  A    between atoms: _28  and  _29
REMARK   10  A    between atoms: _31  and  _33
REMARK   11  A    between atoms: _33  and  _34
REMARK   12  A    between atoms: _33  and  _36
REMARK   13  A    between atoms: _36  and  _37
REMARK   14  A    between atoms: _40  and  _41
REMARK   15  A    between atoms: _46  and  _48
REMARK   16  A    between atoms: _48  and  _49
REMARK   17  A    between atoms: _48  and  _51
REMARK   18  A    between atoms: _51  and  _52
REMARK   19  A    between atoms: _57  and  _59
REMARK   20  A    between atoms: _59  and  _60
REMARK   21  A    between atoms: _63  and  _65
REMARK   22  A    between atoms: _65  and  _66
REMARK   23  A    between atoms: _65  and  _68
REMARK   24  A    between atoms: _68  and  _69
REMARK   25  A    between atoms: _74  and  _76
REMARK   26  A    between atoms: _76  and  _77
REMARK   27  A    between atoms: _76  and  _79
REMARK   28  A    between atoms: _79  and  _80
REMARK   29  A    between atoms: _83  and  _85
REMARK   30  A    between atoms: _85  and  _86
REMARK   31  A    between atoms: _85  and  _88
REMARK   32  A    between atoms: _88  and  _89
REMARK   33  A    between atoms: _89  and  _90
REMARK   34  A    between atoms: _95  and  _97
REMARK   35  A    between atoms: _97  and  _98
REMARK   36  A    between atoms: _97  and  _100
REMARK   37  A    between atoms: _100  and  _101
REMARK   38  A    between atoms: _107  and  _109
REMARK   39  A    between atoms: _118  and  _121
REMARK   40  A    between atoms: _121  and  _122
REMARK   41  A    between atoms: _130  and  _131
REMARK   42  A    between atoms: _139  and  _141
REMARK   43  A    between atoms: _141  and  _142
REMARK   44  A    between atoms: _141  and  _144
REMARK   45  A    between atoms: _144  and  _145
REMARK   46  A    between atoms: _145  and  _146
REMARK   47  A    between atoms: _149  and  _151
REMARK   48  A    between atoms: _151  and  _152
REMARK   49  A    between atoms: _151  and  _154
REMARK   50  A    between atoms: _154  and  _155
REMARK   51  A    between atoms: _160  and  _162
REMARK   52  A    between atoms: _162  and  _163
REMARK   53  A    between atoms: _162  and  _165
REMARK   54  A    between atoms: _165  and  _166
REMARK   55  A    between atoms: _166  and  _167
REMARK   56  A    between atoms: _170  and  _172
REMARK   57  A    between atoms: _172  and  _173
REMARK   58  A    between atoms: _172  and  _175
REMARK   59  A    between atoms: _175  and  _176
REMARK   60  A    between atoms: _179  and  _181
REMARK   61  A    between atoms: _181  and  _182
REMARK   62  A    between atoms: _181  and  _184
REMARK   63  A    between atoms: _184  and  _185
REMARK   64  A    between atoms: _186  and  ZN_394
REMARK   65  A    between atoms: _190  and  _192
REMARK   66  A    between atoms: _192  and  _193
REMARK   67  A    between atoms: _192  and  _195
REMARK   68  A    between atoms: _195  and  _196
REMARK   69  A    between atoms: _199  and  _201
REMARK   70  A    between atoms: _201  and  _202
REMARK   71  A    between atoms: _201  and  _204
REMARK   72  A    between atoms: _207  and  _209
REMARK   73  A    between atoms: _209  and  _210
REMARK   74  A    between atoms: _209  and  _212
REMARK   75  A    between atoms: _212  and  _213
REMARK   76  A    between atoms: _218  and  _220
REMARK   77  A    between atoms: _220  and  _221
REMARK   78  A    between atoms: _220  and  _223
REMARK   79  A    between atoms: _223  and  _224
REMARK   80  A    between atoms: _230  and  _232
REMARK   81  A    between atoms: _232  and  _233
REMARK   82  A    between atoms: _232  and  _235
REMARK   83  A    between atoms: _238  and  _240
REMARK   84  A    between atoms: _240  and  _241
REMARK   85  A    between atoms: _240  and  _243
REMARK   86  A    between atoms: _243  and  _244
REMARK   87  A    between atoms: _247  and  _249
REMARK   88  A    between atoms: _249  and  _250
REMARK   89  A    between atoms: _253  and  _255
REMARK   90  A    between atoms: _255  and  _256
REMARK   91  A    between atoms: _255  and  _258
REMARK   92  A    between atoms: _261  and  _263
REMARK   93  A    between atoms: _263  and  _264
REMARK   94  A    between atoms: _263  and  _266
REMARK   95  A    between atoms: _266  and  _267
REMARK   96  A    between atoms: _270  and  _272
REMARK   97  A    between atoms: _272  and  _273
REMARK   98  A    between atoms: _275  and  _277
REMARK   99  A    between atoms: _277  and  _278
REMARK  100  A    between atoms: _277  and  _280
REMARK  101  A    between atoms: _280  and  _281
REMARK  102  A    between atoms: _283  and  _285
REMARK  103  A    between atoms: _285  and  _286
REMARK  104  A    between atoms: _285  and  _288
REMARK  105  A    between atoms: _288  and  _289
REMARK  106  A    between atoms: _292  and  _294
REMARK  107  A    between atoms: _294  and  _295
REMARK  108  A    between atoms: _294  and  _297
REMARK  109  A    between atoms: _297  and  _298
REMARK  110  A    between atoms: _301  and  _303
REMARK  111  A    between atoms: _303  and  _304
REMARK  112  A    between atoms: _303  and  _306
REMARK  113  A    between atoms: _306  and  _307
REMARK  114  A    between atoms: _311  and  _312
REMARK  115  A    between atoms: _318  and  _319
REMARK  116  A    between atoms: _324  and  _326
REMARK  117  A    between atoms: _326  and  _327
REMARK  118  A    between atoms: _326  and  _329
REMARK  119  A    between atoms: _329  and  _330
REMARK  120  A    between atoms: _333  and  _335
REMARK  121  A    between atoms: _335  and  _336
REMARK  122  A    between atoms: _335  and  _338
REMARK  123  A    between atoms: _338  and  _339
REMARK  124  A    between atoms: _342  and  _344
REMARK  125  A    between atoms: _344  and  _345
REMARK  126  A    between atoms: _344  and  _347
REMARK  127  A    between atoms: _350  and  _352
REMARK  128  A    between atoms: _352  and  _353
REMARK  129  A    between atoms: _352  and  _355
REMARK  130  A    between atoms: _355  and  _356
REMARK  131  A    between atoms: _366  and  _368
REMARK  132  A    between atoms: _368  and  _369
REMARK  133  A    between atoms: _368  and  _371
REMARK  134  A    between atoms: _371  and  _372
REMARK  135  A    between atoms: _377  and  _379
REMARK  136  A    between atoms: _379  and  _380
REMARK  137  A    between atoms: _379  and  _382
REMARK  138  A    between atoms: _382  and  _383
REMARK  139  A    between atoms: _383  and  _384
REMARK  140  A    between atoms: _384  and  _385
REMARK                            x       y       z     vdW  Elec       q    Type
REMARK                         _______ _______ _______ _____ _____    ______ ____
ROOT
ATOM      1  C   THR A   4      21.917   1.240  16.235  0.00  0.00    +0.246 C 
ATOM      2  O   THR A   4      21.428   2.221  16.834  0.00  0.00    -0.273 OA
ATOM      3  N   PRO A   5      23.223   1.251  15.867  0.00  0.00    -0.272 N 
ATOM      4  CA  PRO A   5      23.945   2.500  15.949  0.00  0.00    +0.152 C 
ATOM      5  CB  PRO A   5      25.175   2.188  15.126  0.00  0.00    +0.031 C 
ATOM      6  CG  PRO A   5      25.420   0.703  15.300  0.00  0.00    +0.024 C 
ATOM      7  CD  PRO A   5      23.982   0.113  15.267  0.00  0.00    +0.094 C 
ENDROOT
BRANCH   4   8
ATOM      8  C   PRO A   5      23.135   3.651  15.360  0.00  0.00    +0.244 C 
ATOM      9  N   PRO A   6      23.119   4.800  16.031  0.00  0.00    -0.272 N 
ATOM     10  CA  PRO A   6      24.010   5.187  17.093  0.00  0.00    +0.152 C 
ATOM     11  CB  PRO A   6      24.006   6.748  16.972  0.00  0.00    +0.031 C 
ATOM     12  CG  PRO A   6      22.641   7.046  16.468  0.00  0.00    +0.024 C 
ATOM     13  CD  PRO A   6      22.417   5.967  15.449  0.00  0.00    +0.094 C 
ATOM     14  O   PRO A   5      22.501   3.513  14.274  0.00  0.00    -0.273 OA
BRANCH  10  15
ATOM     15  C   PRO A   6      23.640   4.783  18.547  0.00  0.00    +0.241 C 
ATOM     16  O   PRO A   6      24.246   5.230  19.497  0.00  0.00    -0.273 OA
ATOM     17  N   LEU A   7      22.655   3.885  18.680  0.00  0.00    -0.297 N 
ATOM     18  H   LEU A   7      22.081   3.616  17.855  0.00  0.00    +0.150 HD
BRANCH  17  19
ATOM     19  CA  LEU A   7      22.385   3.279  19.993  0.00  0.00    +0.149 C 
BRANCH  19  20
ATOM     20  C   LEU A   7      21.977   4.319  21.070  0.00  0.00    +0.241 C 
ATOM     21  O   LEU A   7      22.136   4.028  22.279  0.00  0.00    -0.273 OA
ATOM     22  N   LEU A   8      21.351   5.418  20.618  0.00  0.00    -0.298 N 
ATOM     23  H   LEU A   8      21.032   5.470  19.630  0.00  0.00    +0.150 HD
BRANCH  22  24
ATOM     24  CA  LEU A   8      21.123   6.533  21.519  0.00  0.00    +0.137 C 
BRANCH  24  25
ATOM     25  C   LEU A   8      20.092   6.162  22.600  0.00  0.00    +0.227 C 
ATOM     26  O   LEU A   8      19.090   5.460  22.346  0.00  0.00    -0.286 OA
ENDBRANCH  24  25
BRANCH  24  27
ATOM     27  CB  LEU A   8      20.667   7.793  20.737  0.00  0.00    +0.028 C 
BRANCH  27  28
ATOM     28  CG  LEU A   8      21.661   8.260  19.658  0.00  0.00    +0.002 C 
ATOM     29  CD2 LEU A   8      22.936   8.764  20.268  0.00  0.00    +0.000 C 
ATOM     30  CD1 LEU A   8      20.974   9.314  18.742  0.00  0.00    +0.000 C 
ENDBRANCH  27  28
ENDBRANCH  24  27
ENDBRANCH  22  24
ENDBRANCH  19  20
BRANCH  19  31
ATOM     31  CB  LEU A   7      23.552   2.356  20.507  0.00  0.00    +0.029 C 
BRANCH  31  32
ATOM     32  CG  LEU A   7      23.885   1.283  19.493  0.00  0.00    +0.002 C 
ATOM     33  CD2 LEU A   7      25.232   0.619  19.929  0.00  0.00    +0.000 C 
ATOM     34  CD1 LEU A   7      22.859   0.154  19.455  0.00  0.00    +0.000 C 
ENDBRANCH  31  32
ENDBRANCH  19  31
ENDBRANCH  17  19
ENDBRANCH  10  15
ENDBRANCH   4   8
BRANCH   1  35
ATOM     35  CA  THR A   4      21.141  -0.018  15.943  0.00  0.00    +0.176 C 
BRANCH  35  38
ATOM     36  C   THR A   3      19.859  -1.159  17.729  0.00  0.00    +0.243 C 
ATOM     37  O   THR A   3      20.476  -2.208  17.626  0.00  0.00    -0.273 OA
ATOM     38  N   THR A   4      20.066  -0.083  16.992  0.00  0.00    -0.295 N 
ATOM     39  H   THR A   4      19.463   0.751  17.143  0.00  0.00    +0.150 HD
BRANCH  36  40
ATOM     40  CA  THR A   3      18.846  -1.076  18.880  0.00  0.00    +0.176 C 
BRANCH  40  43
ATOM     41  C   LEU A   2      18.578   1.174  19.766  0.00  0.00    +0.241 C 
ATOM     42  O   LEU A   2      19.654   1.025  20.491  0.00  0.00    -0.273 OA
ATOM     43  N   THR A   3      18.184   0.251  18.895  0.00  0.00    -0.295 N 
ATOM     44  H   THR A   3      17.415   0.458  18.227  0.00  0.00    +0.150 HD
BRANCH  41  45
ATOM     45  CA  LEU A   2      17.804   2.515  19.727  0.00  0.00    +0.149 C 
BRANCH  45  48
ATOM     46  C   SER A   1      17.372   2.423  22.116  0.00  0.00    +0.241 C 
ATOM     47  O   SER A   1      16.612   1.437  21.942  0.00  0.00    -0.274 OA
ATOM     48  N   LEU A   2      17.914   3.069  21.075  0.00  0.00    -0.297 N 
ATOM     49  H   LEU A   2      18.415   3.968  21.227  0.00  0.00    +0.150 HD
BRANCH  46  50
ATOM     50  CA  SER A   1      17.823   2.851  23.521  0.00  0.00    +0.174 C 
BRANCH  50  51
ATOM     51  N   SER A   1      17.043   2.180  24.519  0.00  0.00    -0.236 NA
ATOM     52  H   SER A   1      16.789   1.180  24.389  0.00  0.00    +0.142 HD
ENDBRANCH  50  51
BRANCH  50  53
ATOM     53  CB  SER A   1      19.314   2.445  23.713  0.00  0.00    +0.163 C 
BRANCH  53  54
ATOM     54  OG  SER A   1      19.574   1.077  23.266  0.00  0.00    -0.380 OA
ATOM     55  H   SER A   1      19.354   0.998  22.304  0.00  0.00    +0.211 HD
ENDBRANCH  53  54
ENDBRANCH  50  53
ENDBRANCH  46  50
ENDBRANCH  45  48
BRANCH  45  56
ATOM     56  CB  LEU A   2      18.554   3.440  18.789  0.00  0.00    +0.029 C 
BRANCH  56  57
ATOM     57  CG  LEU A   2      17.985   4.862  18.672  0.00  0.00    +0.002 C 
ATOM     58  CD2 LEU A   2      16.528   4.922  18.429  0.00  0.00    +0.000 C 
ATOM     59  CD1 LEU A   2      18.810   5.741  17.659  0.00  0.00    +0.000 C 
ENDBRANCH  56  57
ENDBRANCH  45  56
ENDBRANCH  41  45
ENDBRANCH  40  43
BRANCH  40  60
ATOM     60  CB  THR A   3      17.791  -2.210  18.721  0.00  0.00    +0.137 C 
ATOM     61  CG2 THR A   3      16.805  -2.215  19.831  0.00  0.00    +0.034 C 
BRANCH  60  62
ATOM     62  OG1 THR A   3      17.108  -2.081  17.446  0.00  0.00    -0.382 OA
ATOM     63  HG1 THR A   3      16.440  -2.806  17.356  0.00  0.00    +0.210 HD
ENDBRANCH  60  62
ENDBRANCH  40  60
ENDBRANCH  36  40
ENDBRANCH  35  38
BRANCH  35  64
ATOM     64  CB  THR A   4      20.652   0.131  14.505  0.00  0.00    +0.137 C 
ATOM     65  CG2 THR A   4      20.023  -1.140  14.069  0.00  0.00    +0.034 C 
BRANCH  64  66
ATOM     66  OG1 THR A   4      19.775   1.263  14.378  0.00  0.00    -0.382 OA
ATOM     67  HG1 THR A   4      20.261   2.086  14.637  0.00  0.00    +0.210 HD
ENDBRANCH  64  66
ENDBRANCH  35  64
ENDBRANCH   1  35
TORSDOF 26
REMARK  Name = ../refined-set-2016/4jsa/4jsa_pocket.pdb
REMARK  140 active torsions:
REMARK  status: ('A' for Active; 'I' for Inactive)
REMARK    1  A    between atoms: _1  and  _3
REMARK    2  A    between atoms: _3  and  _4
REMARK    3  A    between atoms: _3  and  _6
REMARK    4  A    between atoms: _6  and  _7
REMARK    5  A    between atoms: _17  and  _19
REMARK    6  A    between atoms: _19  and  _20
REMARK    7  A    between atoms: _19  and  _22
REMARK    8  A    between atoms: _22  and  _23
REMARK    9  A    between atoms: _28  and  _29
REMARK   10  A    between atoms: _31  and  _33
REMARK   11  A    between atoms: _33  and  _34
REMARK   12  A    between atoms: _33  and  _36
REMARK   13  A    between atoms: _36  and  _37
REMARK   14  A    between atoms: _40  and  _41
REMARK   15  A    between atoms: _46  and  _48
REMARK   16  A    between atoms: _48  and  _49
REMARK   17  A    between atoms: _48  and  _51
REMARK   18  A    between atoms: _51  and  _52
REMARK   19  A    between atoms: _57  and  _59
REMARK   20  A    between atoms: _59  and  _60
REMARK   21  A    between atoms: _63  and  _65
REMARK   22  A    between atoms: _65  and  _66
REMARK   23  A    between atoms: _65  and  _68
REMARK   24  A    between atoms: _68  and  _69
REMARK   25  A    between atoms: _74  and  _76
REMARK   26  A    between atoms: _76  and  _77
REMARK   27  A    between atoms: _76  and  _79
REMARK   28  A    between atoms: _79  and  _80
REMARK   29  A    between atoms: _83  and  _85
REMARK   30  A    between atoms: _85  and  _86
REMARK   31  A    between atoms: _85  and  _88
REMARK   32  A    between atoms: _88  and  _89
REMARK   33  A    between atoms: _89  and  _90
REMARK   34  A    between atoms: _95  and  _97
REMARK   35  A    between atoms: _97  and  _98
REMARK   36  A    between atoms: _97  and  _100
REMARK   37  A    between atoms: _100  and  _101
REMARK   38  A    between atoms: _107  and  _109
REMARK   39  A    between atoms: _118  and  _121
REMARK   40  A    between atoms: _121  and  _122
REMARK   41  A    between atoms: _130  and  _131
REMARK   42  A    between atoms: _139  and  _141
REMARK   43  A    between atoms: _141  and  _142
REMARK   44  A    between atoms: _141  and  _144
REMARK   45  A    between atoms: _144  and  _145
REMARK   46  A    between atoms: _145  and  _146
REMARK   47  A    between atoms: _149  and  _151
REMARK   48  A    between atoms: _151  and  _152
REMARK   49  A    between atoms: _151  and  _154
REMARK   50  A    between atoms: _154  and  _155
REMARK   51  A    between atoms: _160  and  _162
REMARK   52  A    between atoms: _162  and  _163
REMARK   53  A    between atoms: _162  and  _165
REMARK   54  A    between atoms: _165  and  _166
REMARK   55  A    between atoms: _166  and  _167
REMARK   56  A    between atoms: _170  and  _172
REMARK   57  A    between atoms: _172  and  _173
REMARK   58  A    between atoms: _172  and  _175
REMARK   59  A    between atoms: _175  and  _176
REMARK   60  A    between atoms: _179  and  _181
REMARK   61  A    between atoms: _181  and  _182
REMARK   62  A    between atoms: _181  and  _184
REMARK   63  A    between atoms: _184  and  _185
REMARK   64  A    between atoms: _186  and  ZN_394
REMARK   65  A    between atoms: _190  and  _192
REMARK   66  A    between atoms: _192  and  _193
REMARK   67  A    between atoms: _192  and  _195
REMARK   68  A    between atoms: _195  and  _196
REMARK   69  A    between atoms: _199  and  _201
REMARK   70  A    between atoms: _201  and  _202
REMARK   71  A    between atoms: _201  and  _204
REMARK   72  A    between atoms: _207  and  _209
REMARK   73  A    between atoms: _209  and  _210
REMARK   74  A    between atoms: _209  and  _212
REMARK   75  A    between atoms: _212  and  _213
REMARK   76  A    between atoms: _218  and  _220
REMARK   77  A    between atoms: _220  and  _221
REMARK   78  A    between atoms: _220  and  _223
REMARK   79  A    between atoms: _223  and  _224
REMARK   80  A    between atoms: _230  and  _232
REMARK   81  A    between atoms: _232  and  _233
REMARK   82  A    between atoms: _232  and  _235
REMARK   83  A    between atoms: _238  and  _240
REMARK   84  A    between atoms: _240  and  _241
REMARK   85  A    between atoms: _240  and  _243
REMARK   86  A    between atoms: _243  and  _244
REMARK   87  A    between atoms: _247  and  _249
REMARK   88  A    between atoms: _249  and  _250
REMARK   89  A    between atoms: _253  and  _255
REMARK   90  A    between atoms: _255  and  _256
REMARK   91  A    between atoms: _255  and  _258
REMARK   92  A    between atoms: _261  and  _263
REMARK   93  A    between atoms: _263  and  _264
REMARK   94  A    between atoms: _263  and  _266
REMARK   95  A    between atoms: _266  and  _267
REMARK   96  A    between atoms: _270  and  _272
REMARK   97  A    between atoms: _272  and  _273
REMARK   98  A    between atoms: _275  and  _277
REMARK   99  A    between atoms: _277  and  _278
REMARK  100  A    between atoms: _277  and  _280
REMARK  101  A    between atoms: _280  and  _281
REMARK  102  A    between atoms: _283  and  _285
REMARK  103  A    between atoms: _285  and  _286
REMARK  104  A    between atoms: _285  and  _288
REMARK  105  A    between atoms: _288  and  _289
REMARK  106  A    between atoms: _292  and  _294
REMARK  107  A    between atoms: _294  and  _295
REMARK  108  A    between atoms: _294  and  _297
REMARK  109  A    between atoms: _297  and  _298
REMARK  110  A    between atoms: _301  and  _303
REMARK  111  A    between atoms: _303  and  _304
REMARK  112  A    between atoms: _303  and  _306
REMARK  113  A    between atoms: _306  and  _307
REMARK  114  A    between atoms: _311  and  _312
REMARK  115  A    between atoms: _318  and  _319
REMARK  116  A    between atoms: _324  and  _326
REMARK  117  A    between atoms: _326  and  _327
REMARK  118  A    between atoms: _326  and  _329
REMARK  119  A    between atoms: _329  and  _330
REMARK  120  A    between atoms: _333  and  _335
REMARK  121  A    between atoms: _335  and  _336
REMARK  122  A    between atoms: _335  and  _338
REMARK  123  A    between atoms: _338  and  _339
REMARK  124  A    between atoms: _342  and  _344
REMARK  125  A    between atoms: _344  and  _345
REMARK  126  A    between atoms: _344  and  _347
REMARK  127  A    between atoms: _350  and  _352
REMARK  128  A    between atoms: _352  and  _353
REMARK  129  A    between atoms: _352  and  _355
REMARK  130  A    between atoms: _355  and  _356
REMARK  131  A    between atoms: _366  and  _368
REMARK  132  A    between atoms: _368  and  _369
REMARK  133  A    between atoms: _368  and  _371
REMARK  134  A    between atoms: _371  and  _372
REMARK  135  A    between atoms: _377  and  _379
REMARK  136  A    between atoms: _379  and  _380
REMARK  137  A    between atoms: _379  and  _382
REMARK  138  A    between atoms: _382  and  _383
REMARK  139  A    between atoms: _383  and  _384
REMARK  140  A    between atoms: _384  and  _385
REMARK                            x       y       z     vdW  Elec       q    Type
REMARK                         _______ _______ _______ _____ _____    ______ ____
ROOT
ATOM      1  CA  VAL A   1      13.634   5.524  23.943  0.00  0.00    +0.133 C 
ENDROOT
BRANCH   1   2
ATOM      2  CB  VAL A   1      13.914   4.239  23.133  0.00  0.00    +0.023 C 
ATOM      3  CG2 VAL A   1      12.490   3.536  22.772  0.00  0.00    +0.002 C 
ATOM      4  CG1 VAL A   1      14.672   4.564  21.801  0.00  0.00    +0.002 C 
ENDBRANCH   1   2
BRANCH   1   5
ATOM      5  N   VAL A   1      14.895   6.214  24.281  0.00  0.00    -0.239 NA
ATOM      6  H   VAL A   1      15.707   5.681  24.653  0.00  0.00    +0.142 HD
ENDBRANCH   1   5
BRANCH   1   7
ATOM      7  C   VAL A   1      12.862   5.051  25.170  0.00  0.00    +0.224 C 
ATOM      8  O   VAL A   1      13.380   4.386  26.053  0.00  0.00    -0.287 OA
ENDBRANCH   1   7
TORSDOF 3
REMARK  Name = ../refined-set-2016/4jsa/4jsa_pocket.pdb
REMARK  140 active torsions:
REMARK  status: ('A' for Active; 'I' for Inactive)
REMARK    1  A    between atoms: _1  and  _3
REMARK    2  A    between atoms: _3  and  _4
REMARK    3  A    between atoms: _3  and  _6
REMARK    4  A    between atoms: _6  and  _7
REMARK    5  A    between atoms: _17  and  _19
REMARK    6  A    between atoms: _19  and  _20
REMARK    7  A    between atoms: _19  and  _22
REMARK    8  A    between atoms: _22  and  _23
REMARK    9  A    between atoms: _28  and  _29
REMARK   10  A    between atoms: _31  and  _33
REMARK   11  A    between atoms: _33  and  _34
REMARK   12  A    between atoms: _33  and  _36
REMARK   13  A    between atoms: _36  and  _37
REMARK   14  A    between atoms: _40  and  _41
REMARK   15  A    between atoms: _46  and  _48
REMARK   16  A    between atoms: _48  and  _49
REMARK   17  A    between atoms: _48  and  _51
REMARK   18  A    between atoms: _51  and  _52
REMARK   19  A    between atoms: _57  and  _59
REMARK   20  A    between atoms: _59  and  _60
REMARK   21  A    between atoms: _63  and  _65
REMARK   22  A    between atoms: _65  and  _66
REMARK   23  A    between atoms: _65  and  _68
REMARK   24  A    between atoms: _68  and  _69
REMARK   25  A    between atoms: _74  and  _76
REMARK   26  A    between atoms: _76  and  _77
REMARK   27  A    between atoms: _76  and  _79
REMARK   28  A    between atoms: _79  and  _80
REMARK   29  A    between atoms: _83  and  _85
REMARK   30  A    between atoms: _85  and  _86
REMARK   31  A    between atoms: _85  and  _88
REMARK   32  A    between atoms: _88  and  _89
REMARK   33  A    between atoms: _89  and  _90
REMARK   34  A    between atoms: _95  and  _97
REMARK   35  A    between atoms: _97  and  _98
REMARK   36  A    between atoms: _97  and  _100
REMARK   37  A    between atoms: _100  and  _101
REMARK   38  A    between atoms: _107  and  _109
REMARK   39  A    between atoms: _118  and  _121
REMARK   40  A    between atoms: _121  and  _122
REMARK   41  A    between atoms: _130  and  _131
REMARK   42  A    between atoms: _139  and  _141
REMARK   43  A    between atoms: _141  and  _142
REMARK   44  A    between atoms: _141  and  _144
REMARK   45  A    between atoms: _144  and  _145
REMARK   46  A    between atoms: _145  and  _146
REMARK   47  A    between atoms: _149  and  _151
REMARK   48  A    between atoms: _151  and  _152
REMARK   49  A    between atoms: _151  and  _154
REMARK   50  A    between atoms: _154  and  _155
REMARK   51  A    between atoms: _160  and  _162
REMARK   52  A    between atoms: _162  and  _163
REMARK   53  A    between atoms: _162  and  _165
REMARK   54  A    between atoms: _165  and  _166
REMARK   55  A    between atoms: _166  and  _167
REMARK   56  A    between atoms: _170  and  _172
REMARK   57  A    between atoms: _172  and  _173
REMARK   58  A    between atoms: _172  and  _175
REMARK   59  A    between atoms: _175  and  _176
REMARK   60  A    between atoms: _179  and  _181
REMARK   61  A    between atoms: _181  and  _182
REMARK   62  A    between atoms: _181  and  _184
REMARK   63  A    between atoms: _184  and  _185
REMARK   64  A    between atoms: _186  and  ZN_394
REMARK   65  A    between atoms: _190  and  _192
REMARK   66  A    between atoms: _192  and  _193
REMARK   67  A    between atoms: _192  and  _195
REMARK   68  A    between atoms: _195  and  _196
REMARK   69  A    between atoms: _199  and  _201
REMARK   70  A    between atoms: _201  and  _202
REMARK   71  A    between atoms: _201  and  _204
REMARK   72  A    between atoms: _207  and  _209
REMARK   73  A    between atoms: _209  and  _210
REMARK   74  A    between atoms: _209  and  _212
REMARK   75  A    between atoms: _212  and  _213
REMARK   76  A    between atoms: _218  and  _220
REMARK   77  A    between atoms: _220  and  _221
REMARK   78  A    between atoms: _220  and  _223
REMARK   79  A    between atoms: _223  and  _224
REMARK   80  A    between atoms: _230  and  _232
REMARK   81  A    between atoms: _232  and  _233
REMARK   82  A    between atoms: _232  and  _235
REMARK   83  A    between atoms: _238  and  _240
REMARK   84  A    between atoms: _240  and  _241
REMARK   85  A    between atoms: _240  and  _243
REMARK   86  A    between atoms: _243  and  _244
REMARK   87  A    between atoms: _247  and  _249
REMARK   88  A    between atoms: _249  and  _250
REMARK   89  A    between atoms: _253  and  _255
REMARK   90  A    between atoms: _255  and  _256
REMARK   91  A    between atoms: _255  and  _258
REMARK   92  A    between atoms: _261  and  _263
REMARK   93  A    between atoms: _263  and  _264
REMARK   94  A    between atoms: _263  and  _266
REMARK   95  A    between atoms: _266  and  _267
REMARK   96  A    between atoms: _270  and  _272
REMARK   97  A    between atoms: _272  and  _273
REMARK   98  A    between atoms: _275  and  _277
REMARK   99  A    between atoms: _277  and  _278
REMARK  100  A    between atoms: _277  and  _280
REMARK  101  A    between atoms: _280  and  _281
REMARK  102  A    between atoms: _283  and  _285
REMARK  103  A    between atoms: _285  and  _286
REMARK  104  A    between atoms: _285  and  _288
REMARK  105  A    between atoms: _288  and  _289
REMARK  106  A    between atoms: _292  and  _294
REMARK  107  A    between atoms: _294  and  _295
REMARK  108  A    between atoms: _294  and  _297
REMARK  109  A    between atoms: _297  and  _298
REMARK  110  A    between atoms: _301  and  _303
REMARK  111  A    between atoms: _303  and  _304
REMARK  112  A    between atoms: _303  and  _306
REMARK  113  A    between atoms: _306  and  _307
REMARK  114  A    between atoms: _311  and  _312
REMARK  115  A    between atoms: _318  and  _319
REMARK  116  A    between atoms: _324  and  _326
REMARK  117  A    between atoms: _326  and  _327
REMARK  118  A    between atoms: _326  and  _329
REMARK  119  A    between atoms: _329  and  _330
REMARK  120  A    between atoms: _333  and  _335
REMARK  121  A    between atoms: _335  and  _336
REMARK  122  A    between atoms: _335  and  _338
REMARK  123  A    between atoms: _338  and  _339
REMARK  124  A    between atoms: _342  and  _344
REMARK  125  A    between atoms: _344  and  _345
REMARK  126  A    between atoms: _344  and  _347
REMARK  127  A    between atoms: _350  and  _352
REMARK  128  A    between atoms: _352  and  _353
REMARK  129  A    between atoms: _352  and  _355
REMARK  130  A    between atoms: _355  and  _356
REMARK  131  A    between atoms: _366  and  _368
REMARK  132  A    between atoms: _368  and  _369
REMARK  133  A    between atoms: _368  and  _371
REMARK  134  A    between atoms: _371  and  _372
REMARK  135  A    between atoms: _377  and  _379
REMARK  136  A    between atoms: _379  and  _380
REMARK  137  A    between atoms: _379  and  _382
REMARK  138  A    between atoms: _382  and  _383
REMARK  139  A    between atoms: _383  and  _384
REMARK  140  A    between atoms: _384  and  _385
REMARK                            x       y       z     vdW  Elec       q    Type
REMARK                         _______ _______ _______ _____ _____    ______ ____
ROOT
ATOM      1  CG  TRP A   1      12.145   0.029  24.179  0.00  0.00    -0.002 A 
ATOM      2  CD1 TRP A   1      13.411   0.663  24.361  0.00  0.00    +0.068 A 
ATOM      3  NE1 TRP A   1      14.114   0.613  23.175  0.00  0.00    -0.352 N 
ATOM      4  HE1 TRP A   1      15.067   1.002  23.025  0.00  0.00    +0.166 HD
ATOM      5  CE2 TRP A   1      13.369  -0.023  22.234  0.00  0.00    +0.056 A 
ATOM      6  CZ2 TRP A   1      13.661  -0.282  20.895  0.00  0.00    +0.017 A 
ATOM      7  CH2 TRP A   1      12.700  -0.980  20.176  0.00  0.00    +0.001 A 
ATOM      8  CZ3 TRP A   1      11.419  -1.363  20.759  0.00  0.00    +0.000 A 
ATOM      9  CE3 TRP A   1      11.141  -1.069  22.042  0.00  0.00    +0.001 A 
ATOM     10  CD2 TRP A   1      12.112  -0.392  22.836  0.00  0.00    +0.013 A 
ENDROOT
BRANCH   1  11
ATOM     11  CB  TRP A   1      11.036  -0.103  25.146  0.00  0.00    +0.053 C 
BRANCH  11  12
ATOM     12  CA  TRP A   1      10.007   1.051  24.937  0.00  0.00    +0.137 C 
BRANCH  12  13
ATOM     13  N   TRP A   1      10.434   2.260  25.652  0.00  0.00    -0.239 NA
ATOM     14  H   TRP A   1      11.011   2.162  26.512  0.00  0.00    +0.142 HD
ENDBRANCH  12  13
BRANCH  12  15
ATOM     15  C   TRP A   1       8.646   0.634  25.468  0.00  0.00    +0.224 C 
ATOM     16  O   TRP A   1       8.445   0.552  26.695  0.00  0.00    -0.287 OA
ENDBRANCH  12  15
ENDBRANCH  11  12
ENDBRANCH   1  11
TORSDOF 4
REMARK  Name = ../refined-set-2016/4jsa/4jsa_pocket.pdb
REMARK  140 active torsions:
REMARK  status: ('A' for Active; 'I' for Inactive)
REMARK    1  A    between atoms: _1  and  _3
REMARK    2  A    between atoms: _3  and  _4
REMARK    3  A    between atoms: _3  and  _6
REMARK    4  A    between atoms: _6  and  _7
REMARK    5  A    between atoms: _17  and  _19
REMARK    6  A    between atoms: _19  and  _20
REMARK    7  A    between atoms: _19  and  _22
REMARK    8  A    between atoms: _22  and  _23
REMARK    9  A    between atoms: _28  and  _29
REMARK   10  A    between atoms: _31  and  _33
REMARK   11  A    between atoms: _33  and  _34
REMARK   12  A    between atoms: _33  and  _36
REMARK   13  A    between atoms: _36  and  _37
REMARK   14  A    between atoms: _40  and  _41
REMARK   15  A    between atoms: _46  and  _48
REMARK   16  A    between atoms: _48  and  _49
REMARK   17  A    between atoms: _48  and  _51
REMARK   18  A    between atoms: _51  and  _52
REMARK   19  A    between atoms: _57  and  _59
REMARK   20  A    between atoms: _59  and  _60
REMARK   21  A    between atoms: _63  and  _65
REMARK   22  A    between atoms: _65  and  _66
REMARK   23  A    between atoms: _65  and  _68
REMARK   24  A    between atoms: _68  and  _69
REMARK   25  A    between atoms: _74  and  _76
REMARK   26  A    between atoms: _76  and  _77
REMARK   27  A    between atoms: _76  and  _79
REMARK   28  A    between atoms: _79  and  _80
REMARK   29  A    between atoms: _83  and  _85
REMARK   30  A    between atoms: _85  and  _86
REMARK   31  A    between atoms: _85  and  _88
REMARK   32  A    between atoms: _88  and  _89
REMARK   33  A    between atoms: _89  and  _90
REMARK   34  A    between atoms: _95  and  _97
REMARK   35  A    between atoms: _97  and  _98
REMARK   36  A    between atoms: _97  and  _100
REMARK   37  A    between atoms: _100  and  _101
REMARK   38  A    between atoms: _107  and  _109
REMARK   39  A    between atoms: _118  and  _121
REMARK   40  A    between atoms: _121  and  _122
REMARK   41  A    between atoms: _130  and  _131
REMARK   42  A    between atoms: _139  and  _141
REMARK   43  A    between atoms: _141  and  _142
REMARK   44  A    between atoms: _141  and  _144
REMARK   45  A    between atoms: _144  and  _145
REMARK   46  A    between atoms: _145  and  _146
REMARK   47  A    between atoms: _149  and  _151
REMARK   48  A    between atoms: _151  and  _152
REMARK   49  A    between atoms: _151  and  _154
REMARK   50  A    between atoms: _154  and  _155
REMARK   51  A    between atoms: _160  and  _162
REMARK   52  A    between atoms: _162  and  _163
REMARK   53  A    between atoms: _162  and  _165
REMARK   54  A    between atoms: _165  and  _166
REMARK   55  A    between atoms: _166  and  _167
REMARK   56  A    between atoms: _170  and  _172
REMARK   57  A    between atoms: _172  and  _173
REMARK   58  A    between atoms: _172  and  _175
REMARK   59  A    between atoms: _175  and  _176
REMARK   60  A    between atoms: _179  and  _181
REMARK   61  A    between atoms: _181  and  _182
REMARK   62  A    between atoms: _181  and  _184
REMARK   63  A    between atoms: _184  and  _185
REMARK   64  A    between atoms: _186  and  ZN_394
REMARK   65  A    between atoms: _190  and  _192
REMARK   66  A    between atoms: _192  and  _193
REMARK   67  A    between atoms: _192  and  _195
REMARK   68  A    between atoms: _195  and  _196
REMARK   69  A    between atoms: _199  and  _201
REMARK   70  A    between atoms: _201  and  _202
REMARK   71  A    between atoms: _201  and  _204
REMARK   72  A    between atoms: _207  and  _209
REMARK   73  A    between atoms: _209  and  _210
REMARK   74  A    between atoms: _209  and  _212
REMARK   75  A    between atoms: _212  and  _213
REMARK   76  A    between atoms: _218  and  _220
REMARK   77  A    between atoms: _220  and  _221
REMARK   78  A    between atoms: _220  and  _223
REMARK   79  A    between atoms: _223  and  _224
REMARK   80  A    between atoms: _230  and  _232
REMARK   81  A    between atoms: _232  and  _233
REMARK   82  A    between atoms: _232  and  _235
REMARK   83  A    between atoms: _238  and  _240
REMARK   84  A    between atoms: _240  and  _241
REMARK   85  A    between atoms: _240  and  _243
REMARK   86  A    between atoms: _243  and  _244
REMARK   87  A    between atoms: _247  and  _249
REMARK   88  A    between atoms: _249  and  _250
REMARK   89  A    between atoms: _253  and  _255
REMARK   90  A    between atoms: _255  and  _256
REMARK   91  A    between atoms: _255  and  _258
REMARK   92  A    between atoms: _261  and  _263
REMARK   93  A    between atoms: _263  and  _264
REMARK   94  A    between atoms: _263  and  _266
REMARK   95  A    between atoms: _266  and  _267
REMARK   96  A    between atoms: _270  and  _272
REMARK   97  A    between atoms: _272  and  _273
REMARK   98  A    between atoms: _275  and  _277
REMARK   99  A    between atoms: _277  and  _278
REMARK  100  A    between atoms: _277  and  _280
REMARK  101  A    between atoms: _280  and  _281
REMARK  102  A    between atoms: _283  and  _285
REMARK  103  A    between atoms: _285  and  _286
REMARK  104  A    between atoms: _285  and  _288
REMARK  105  A    between atoms: _288  and  _289
REMARK  106  A    between atoms: _292  and  _294
REMARK  107  A    between atoms: _294  and  _295
REMARK  108  A    between atoms: _294  and  _297
REMARK  109  A    between atoms: _297  and  _298
REMARK  110  A    between atoms: _301  and  _303
REMARK  111  A    between atoms: _303  and  _304
REMARK  112  A    between atoms: _303  and  _306
REMARK  113  A    between atoms: _306  and  _307
REMARK  114  A    between atoms: _311  and  _312
REMARK  115  A    between atoms: _318  and  _319
REMARK  116  A    between atoms: _324  and  _326
REMARK  117  A    between atoms: _326  and  _327
REMARK  118  A    between atoms: _326  and  _329
REMARK  119  A    between atoms: _329  and  _330
REMARK  120  A    between atoms: _333  and  _335
REMARK  121  A    between atoms: _335  and  _336
REMARK  122  A    between atoms: _335  and  _338
REMARK  123  A    between atoms: _338  and  _339
REMARK  124  A    between atoms: _342  and  _344
REMARK  125  A    between atoms: _344  and  _345
REMARK  126  A    between atoms: _344  and  _347
REMARK  127  A    between atoms: _350  and  _352
REMARK  128  A    between atoms: _352  and  _353
REMARK  129  A    between atoms: _352  and  _355
REMARK  130  A    between atoms: _355  and  _356
REMARK  131  A    between atoms: _366  and  _368
REMARK  132  A    between atoms: _368  and  _369
REMARK  133  A    between atoms: _368  and  _371
REMARK  134  A    between atoms: _371  and  _372
REMARK  135  A    between atoms: _377  and  _379
REMARK  136  A    between atoms: _379  and  _380
REMARK  137  A    between atoms: _379  and  _382
REMARK  138  A    between atoms: _382  and  _383
REMARK  139  A    between atoms: _383  and  _384
REMARK  140  A    between atoms: _384  and  _385
REMARK                            x       y       z     vdW  Elec       q    Type
REMARK                         _______ _______ _______ _____ _____    ______ ____
ROOT
ATOM      1  CB  ASN A   1      19.061  -7.463  10.403  0.00  0.00    +0.110 C 
ENDROOT
BRANCH   1   2
ATOM      2  CG  ASN A   1      17.611  -7.705  10.009  0.00  0.00    +0.221 C 
ATOM      3  OD1 ASN A   1      16.886  -8.497  10.660  0.00  0.00    -0.275 OA
ATOM      4  ND2 ASN A   1      17.148  -7.004   8.969  0.00  0.00    -0.329 N 
ATOM      5 HD21 ASN A   1      16.156  -7.105   8.674  0.00  0.00    +0.145 HD
ATOM      6 HD22 ASN A   1      17.780  -6.358   8.455  0.00  0.00    +0.145 HD
ENDBRANCH   1   2
BRANCH   1   7
ATOM      7  CA  ASN A   1      19.512  -8.316  11.589  0.00  0.00    +0.142 C 
BRANCH   7   8
ATOM      8  N   ASN A   1      19.168  -9.750  11.339  0.00  0.00    -0.239 NA
ATOM      9  H   ASN A   1      18.247  -9.998  10.925  0.00  0.00    +0.142 HD
ENDBRANCH   7   8
BRANCH   7  10
ATOM     10  C   ASN A   1      18.879  -7.876  12.905  0.00  0.00    +0.225 C 
ATOM     11  O   ASN A   1      18.175  -6.895  12.984  0.00  0.00    -0.287 OA
ENDBRANCH   7  10
ENDBRANCH   1   7
TORSDOF 4
REMARK  Name = ../refined-set-2016/4jsa/4jsa_pocket.pdb
REMARK  140 active torsions:
REMARK  status: ('A' for Active; 'I' for Inactive)
REMARK    1  A    between atoms: _1  and  _3
REMARK    2  A    between atoms: _3  and  _4
REMARK    3  A    between atoms: _3  and  _6
REMARK    4  A    between atoms: _6  and  _7
REMARK    5  A    between atoms: _17  and  _19
REMARK    6  A    between atoms: _19  and  _20
REMARK    7  A    between atoms: _19  and  _22
REMARK    8  A    between atoms: _22  and  _23
REMARK    9  A    between atoms: _28  and  _29
REMARK   10  A    between atoms: _31  and  _33
REMARK   11  A    between atoms: _33  and  _34
REMARK   12  A    between atoms: _33  and  _36
REMARK   13  A    between atoms: _36  and  _37
REMARK   14  A    between atoms: _40  and  _41
REMARK   15  A    between atoms: _46  and  _48
REMARK   16  A    between atoms: _48  and  _49
REMARK   17  A    between atoms: _48  and  _51
REMARK   18  A    between atoms: _51  and  _52
REMARK   19  A    between atoms: _57  and  _59
REMARK   20  A    between atoms: _59  and  _60
REMARK   21  A    between atoms: _63  and  _65
REMARK   22  A    between atoms: _65  and  _66
REMARK   23  A    between atoms: _65  and  _68
REMARK   24  A    between atoms: _68  and  _69
REMARK   25  A    between atoms: _74  and  _76
REMARK   26  A    between atoms: _76  and  _77
REMARK   27  A    between atoms: _76  and  _79
REMARK   28  A    between atoms: _79  and  _80
REMARK   29  A    between atoms: _83  and  _85
REMARK   30  A    between atoms: _85  and  _86
REMARK   31  A    between atoms: _85  and  _88
REMARK   32  A    between atoms: _88  and  _89
REMARK   33  A    between atoms: _89  and  _90
REMARK   34  A    between atoms: _95  and  _97
REMARK   35  A    between atoms: _97  and  _98
REMARK   36  A    between atoms: _97  and  _100
REMARK   37  A    between atoms: _100  and  _101
REMARK   38  A    between atoms: _107  and  _109
REMARK   39  A    between atoms: _118  and  _121
REMARK   40  A    between atoms: _121  and  _122
REMARK   41  A    between atoms: _130  and  _131
REMARK   42  A    between atoms: _139  and  _141
REMARK   43  A    between atoms: _141  and  _142
REMARK   44  A    between atoms: _141  and  _144
REMARK   45  A    between atoms: _144  and  _145
REMARK   46  A    between atoms: _145  and  _146
REMARK   47  A    between atoms: _149  and  _151
REMARK   48  A    between atoms: _151  and  _152
REMARK   49  A    between atoms: _151  and  _154
REMARK   50  A    between atoms: _154  and  _155
REMARK   51  A    between atoms: _160  and  _162
REMARK   52  A    between atoms: _162  and  _163
REMARK   53  A    between atoms: _162  and  _165
REMARK   54  A    between atoms: _165  and  _166
REMARK   55  A    between atoms: _166  and  _167
REMARK   56  A    between atoms: _170  and  _172
REMARK   57  A    between atoms: _172  and  _173
REMARK   58  A    between atoms: _172  and  _175
REMARK   59  A    between atoms: _175  and  _176
REMARK   60  A    between atoms: _179  and  _181
REMARK   61  A    between atoms: _181  and  _182
REMARK   62  A    between atoms: _181  and  _184
REMARK   63  A    between atoms: _184  and  _185
REMARK   64  A    between atoms: _186  and  ZN_394
REMARK   65  A    between atoms: _190  and  _192
REMARK   66  A    between atoms: _192  and  _193
REMARK   67  A    between atoms: _192  and  _195
REMARK   68  A    between atoms: _195  and  _196
REMARK   69  A    between atoms: _199  and  _201
REMARK   70  A    between atoms: _201  and  _202
REMARK   71  A    between atoms: _201  and  _204
REMARK   72  A    between atoms: _207  and  _209
REMARK   73  A    between atoms: _209  and  _210
REMARK   74  A    between atoms: _209  and  _212
REMARK   75  A    between atoms: _212  and  _213
REMARK   76  A    between atoms: _218  and  _220
REMARK   77  A    between atoms: _220  and  _221
REMARK   78  A    between atoms: _220  and  _223
REMARK   79  A    between atoms: _223  and  _224
REMARK   80  A    between atoms: _230  and  _232
REMARK   81  A    between atoms: _232  and  _233
REMARK   82  A    between atoms: _232  and  _235
REMARK   83  A    between atoms: _238  and  _240
REMARK   84  A    between atoms: _240  and  _241
REMARK   85  A    between atoms: _240  and  _243
REMARK   86  A    between atoms: _243  and  _244
REMARK   87  A    between atoms: _247  and  _249
REMARK   88  A    between atoms: _249  and  _250
REMARK   89  A    between atoms: _253  and  _255
REMARK   90  A    between atoms: _255  and  _256
REMARK   91  A    between atoms: _255  and  _258
REMARK   92  A    between atoms: _261  and  _263
REMARK   93  A    between atoms: _263  and  _264
REMARK   94  A    between atoms: _263  and  _266
REMARK   95  A    between atoms: _266  and  _267
REMARK   96  A    between atoms: _270  and  _272
REMARK   97  A    between atoms: _272  and  _273
REMARK   98  A    between atoms: _275  and  _277
REMARK   99  A    between atoms: _277  and  _278
REMARK  100  A    between atoms: _277  and  _280
REMARK  101  A    between atoms: _280  and  _281
REMARK  102  A    between atoms: _283  and  _285
REMARK  103  A    between atoms: _285  and  _286
REMARK  104  A    between atoms: _285  and  _288
REMARK  105  A    between atoms: _288  and  _289
REMARK  106  A    between atoms: _292  and  _294
REMARK  107  A    between atoms: _294  and  _295
REMARK  108  A    between atoms: _294  and  _297
REMARK  109  A    between atoms: _297  and  _298
REMARK  110  A    between atoms: _301  and  _303
REMARK  111  A    between atoms: _303  and  _304
REMARK  112  A    between atoms: _303  and  _306
REMARK  113  A    between atoms: _306  and  _307
REMARK  114  A    between atoms: _311  and  _312
REMARK  115  A    between atoms: _318  and  _319
REMARK  116  A    between atoms: _324  and  _326
REMARK  117  A    between atoms: _326  and  _327
REMARK  118  A    between atoms: _326  and  _329
REMARK  119  A    between atoms: _329  and  _330
REMARK  120  A    between atoms: _333  and  _335
REMARK  121  A    between atoms: _335  and  _336
REMARK  122  A    between atoms: _335  and  _338
REMARK  123  A    between atoms: _338  and  _339
REMARK  124  A    between atoms: _342  and  _344
REMARK  125  A    between atoms: _344  and  _345
REMARK  126  A    between atoms: _344  and  _347
REMARK  127  A    between atoms: _350  and  _352
REMARK  128  A    between atoms: _352  and  _353
REMARK  129  A    between atoms: _352  and  _355
REMARK  130  A    between atoms: _355  and  _356
REMARK  131  A    between atoms: _366  and  _368
REMARK  132  A    between atoms: _368  and  _369
REMARK  133  A    between atoms: _368  and  _371
REMARK  134  A    between atoms: _371  and  _372
REMARK  135  A    between atoms: _377  and  _379
REMARK  136  A    between atoms: _379  and  _380
REMARK  137  A    between atoms: _379  and  _382
REMARK  138  A    between atoms: _382  and  _383
REMARK  139  A    between atoms: _383  and  _384
REMARK  140  A    between atoms: _384  and  _385
REMARK                            x       y       z     vdW  Elec       q    Type
REMARK                         _______ _______ _______ _____ _____    ______ ____
ROOT
ATOM      1  NE  ARG A   1      23.145  -3.851  21.110  0.00  0.00    -0.265 N 
ATOM      2  CZ  ARG A   1      23.332  -2.803  21.914  0.00  0.00    +0.342 C 
ATOM      3  NH2 ARG A   1      24.525  -2.668  22.479  0.00  0.00    -0.292 N 
ATOM      4 HH21 ARG A   1      24.712  -1.865  23.113  0.00  0.00    +0.255 HD
ATOM      5 HH22 ARG A   1      25.273  -3.365  22.288  0.00  0.00    +0.255 HD
ATOM      6  NH1 ARG A   1      22.386  -1.931  22.269  0.00  0.00    -0.292 N 
ATOM      7 HH11 ARG A   1      22.619  -1.140  22.902  0.00  0.00    +0.255 HD
ATOM      8 HH12 ARG A   1      21.415  -2.043  21.912  0.00  0.00    +0.255 HD
ATOM      9  HE  ARG A   1      23.924  -4.529  20.987  0.00  0.00    +0.259 HD
ENDROOT
BRANCH   1  10
ATOM     10  CD  ARG A   1      21.880  -4.089  20.388  0.00  0.00    +0.174 C 
BRANCH  10  11
ATOM     11  CG  ARG A   1      21.985  -5.487  19.760  0.00  0.00    +0.045 C 
BRANCH  11  12
ATOM     12  CB  ARG A   1      20.896  -5.755  18.706  0.00  0.00    +0.029 C 
BRANCH  12  13
ATOM     13  CA  ARG A   1      20.815  -7.234  18.259  0.00  0.00    +0.133 C 
BRANCH  13  14
ATOM     14  N   ARG A   1      19.859  -7.325  17.177  0.00  0.00    -0.239 NA
ATOM     15  H   ARG A   1      19.068  -6.651  17.129  0.00  0.00    +0.142 HD
ENDBRANCH  13  14
BRANCH  13  16
ATOM     16  C   ARG A   1      20.355  -8.122  19.413  0.00  0.00    +0.224 C 
ATOM     17  O   ARG A   1      19.176  -8.155  19.754  0.00  0.00    -0.287 OA
ENDBRANCH  13  16
ENDBRANCH  12  13
ENDBRANCH  11  12
ENDBRANCH  10  11
ENDBRANCH   1  10
TORSDOF 6
REMARK  Name = ../refined-set-2016/4jsa/4jsa_pocket.pdb
REMARK  140 active torsions:
REMARK  status: ('A' for Active; 'I' for Inactive)
REMARK    1  A    between atoms: _1  and  _3
REMARK    2  A    between atoms: _3  and  _4
REMARK    3  A    between atoms: _3  and  _6
REMARK    4  A    between atoms: _6  and  _7
REMARK    5  A    between atoms: _17  and  _19
REMARK    6  A    between atoms: _19  and  _20
REMARK    7  A    between atoms: _19  and  _22
REMARK    8  A    between atoms: _22  and  _23
REMARK    9  A    between atoms: _28  and  _29
REMARK   10  A    between atoms: _31  and  _33
REMARK   11  A    between atoms: _33  and  _34
REMARK   12  A    between atoms: _33  and  _36
REMARK   13  A    between atoms: _36  and  _37
REMARK   14  A    between atoms: _40  and  _41
REMARK   15  A    between atoms: _46  and  _48
REMARK   16  A    between atoms: _48  and  _49
REMARK   17  A    between atoms: _48  and  _51
REMARK   18  A    between atoms: _51  and  _52
REMARK   19  A    between atoms: _57  and  _59
REMARK   20  A    between atoms: _59  and  _60
REMARK   21  A    between atoms: _63  and  _65
REMARK   22  A    between atoms: _65  and  _66
REMARK   23  A    between atoms: _65  and  _68
REMARK   24  A    between atoms: _68  and  _69
REMARK   25  A    between atoms: _74  and  _76
REMARK   26  A    between atoms: _76  and  _77
REMARK   27  A    between atoms: _76  and  _79
REMARK   28  A    between atoms: _79  and  _80
REMARK   29  A    between atoms: _83  and  _85
REMARK   30  A    between atoms: _85  and  _86
REMARK   31  A    between atoms: _85  and  _88
REMARK   32  A    between atoms: _88  and  _89
REMARK   33  A    between atoms: _89  and  _90
REMARK   34  A    between atoms: _95  and  _97
REMARK   35  A    between atoms: _97  and  _98
REMARK   36  A    between atoms: _97  and  _100
REMARK   37  A    between atoms: _100  and  _101
REMARK   38  A    between atoms: _107  and  _109
REMARK   39  A    between atoms: _118  and  _121
REMARK   40  A    between atoms: _121  and  _122
REMARK   41  A    between atoms: _130  and  _131
REMARK   42  A    between atoms: _139  and  _141
REMARK   43  A    between atoms: _141  and  _142
REMARK   44  A    between atoms: _141  and  _144
REMARK   45  A    between atoms: _144  and  _145
REMARK   46  A    between atoms: _145  and  _146
REMARK   47  A    between atoms: _149  and  _151
REMARK   48  A    between atoms: _151  and  _152
REMARK   49  A    between atoms: _151  and  _154
REMARK   50  A    between atoms: _154  and  _155
REMARK   51  A    between atoms: _160  and  _162
REMARK   52  A    between atoms: _162  and  _163
REMARK   53  A    between atoms: _162  and  _165
REMARK   54  A    between atoms: _165  and  _166
REMARK   55  A    between atoms: _166  and  _167
REMARK   56  A    between atoms: _170  and  _172
REMARK   57  A    between atoms: _172  and  _173
REMARK   58  A    between atoms: _172  and  _175
REMARK   59  A    between atoms: _175  and  _176
REMARK   60  A    between atoms: _179  and  _181
REMARK   61  A    between atoms: _181  and  _182
REMARK   62  A    between atoms: _181  and  _184
REMARK   63  A    between atoms: _184  and  _185
REMARK   64  A    between atoms: _186  and  ZN_394
REMARK   65  A    between atoms: _190  and  _192
REMARK   66  A    between atoms: _192  and  _193
REMARK   67  A    between atoms: _192  and  _195
REMARK   68  A    between atoms: _195  and  _196
REMARK   69  A    between atoms: _199  and  _201
REMARK   70  A    between atoms: _201  and  _202
REMARK   71  A    between atoms: _201  and  _204
REMARK   72  A    between atoms: _207  and  _209
REMARK   73  A    between atoms: _209  and  _210
REMARK   74  A    between atoms: _209  and  _212
REMARK   75  A    between atoms: _212  and  _213
REMARK   76  A    between atoms: _218  and  _220
REMARK   77  A    between atoms: _220  and  _221
REMARK   78  A    between atoms: _220  and  _223
REMARK   79  A    between atoms: _223  and  _224
REMARK   80  A    between atoms: _230  and  _232
REMARK   81  A    between atoms: _232  and  _233
REMARK   82  A    between atoms: _232  and  _235
REMARK   83  A    between atoms: _238  and  _240
REMARK   84  A    between atoms: _240  and  _241
REMARK   85  A    between atoms: _240  and  _243
REMARK   86  A    between atoms: _243  and  _244
REMARK   87  A    between atoms: _247  and  _249
REMARK   88  A    between atoms: _249  and  _250
REMARK   89  A    between atoms: _253  and  _255
REMARK   90  A    between atoms: _255  and  _256
REMARK   91  A    between atoms: _255  and  _258
REMARK   92  A    between atoms: _261  and  _263
REMARK   93  A    between atoms: _263  and  _264
REMARK   94  A    between atoms: _263  and  _266
REMARK   95  A    between atoms: _266  and  _267
REMARK   96  A    between atoms: _270  and  _272
REMARK   97  A    between atoms: _272  and  _273
REMARK   98  A    between atoms: _275  and  _277
REMARK   99  A    between atoms: _277  and  _278
REMARK  100  A    between atoms: _277  and  _280
REMARK  101  A    between atoms: _280  and  _281
REMARK  102  A    between atoms: _283  and  _285
REMARK  103  A    between atoms: _285  and  _286
REMARK  104  A    between atoms: _285  and  _288
REMARK  105  A    between atoms: _288  and  _289
REMARK  106  A    between atoms: _292  and  _294
REMARK  107  A    between atoms: _294  and  _295
REMARK  108  A    between atoms: _294  and  _297
REMARK  109  A    between atoms: _297  and  _298
REMARK  110  A    between atoms: _301  and  _303
REMARK  111  A    between atoms: _303  and  _304
REMARK  112  A    between atoms: _303  and  _306
REMARK  113  A    between atoms: _306  and  _307
REMARK  114  A    between atoms: _311  and  _312
REMARK  115  A    between atoms: _318  and  _319
REMARK  116  A    between atoms: _324  and  _326
REMARK  117  A    between atoms: _326  and  _327
REMARK  118  A    between atoms: _326  and  _329
REMARK  119  A    between atoms: _329  and  _330
REMARK  120  A    between atoms: _333  and  _335
REMARK  121  A    between atoms: _335  and  _336
REMARK  122  A    between atoms: _335  and  _338
REMARK  123  A    between atoms: _338  and  _339
REMARK  124  A    between atoms: _342  and  _344
REMARK  125  A    between atoms: _344  and  _345
REMARK  126  A    between atoms: _344  and  _347
REMARK  127  A    between atoms: _350  and  _352
REMARK  128  A    between atoms: _352  and  _353
REMARK  129  A    between atoms: _352  and  _355
REMARK  130  A    between atoms: _355  and  _356
REMARK  131  A    between atoms: _366  and  _368
REMARK  132  A    between atoms: _368  and  _369
REMARK  133  A    between atoms: _368  and  _371
REMARK  134  A    between atoms: _371  and  _372
REMARK  135  A    between atoms: _377  and  _379
REMARK  136  A    between atoms: _379  and  _380
REMARK  137  A    between atoms: _379  and  _382
REMARK  138  A    between atoms: _382  and  _383
REMARK  139  A    between atoms: _383  and  _384
REMARK  140  A    between atoms: _384  and  _385
REMARK                            x       y       z     vdW  Elec       q    Type
REMARK                         _______ _______ _______ _____ _____    ______ ____
ROOT
ATOM      1  O   HOH     1      15.263  -2.692  11.426  0.00  0.00    +0.000 OA
ENDROOT
TORSDOF 0
REMARK  Name = ../refined-set-2016/4jsa/4jsa_pocket.pdb
REMARK  140 active torsions:
REMARK  status: ('A' for Active; 'I' for Inactive)
REMARK    1  A    between atoms: _1  and  _3
REMARK    2  A    between atoms: _3  and  _4
REMARK    3  A    between atoms: _3  and  _6
REMARK    4  A    between atoms: _6  and  _7
REMARK    5  A    between atoms: _17  and  _19
REMARK    6  A    between atoms: _19  and  _20
REMARK    7  A    between atoms: _19  and  _22
REMARK    8  A    between atoms: _22  and  _23
REMARK    9  A    between atoms: _28  and  _29
REMARK   10  A    between atoms: _31  and  _33
REMARK   11  A    between atoms: _33  and  _34
REMARK   12  A    between atoms: _33  and  _36
REMARK   13  A    between atoms: _36  and  _37
REMARK   14  A    between atoms: _40  and  _41
REMARK   15  A    between atoms: _46  and  _48
REMARK   16  A    between atoms: _48  and  _49
REMARK   17  A    between atoms: _48  and  _51
REMARK   18  A    between atoms: _51  and  _52
REMARK   19  A    between atoms: _57  and  _59
REMARK   20  A    between atoms: _59  and  _60
REMARK   21  A    between atoms: _63  and  _65
REMARK   22  A    between atoms: _65  and  _66
REMARK   23  A    between atoms: _65  and  _68
REMARK   24  A    between atoms: _68  and  _69
REMARK   25  A    between atoms: _74  and  _76
REMARK   26  A    between atoms: _76  and  _77
REMARK   27  A    between atoms: _76  and  _79
REMARK   28  A    between atoms: _79  and  _80
REMARK   29  A    between atoms: _83  and  _85
REMARK   30  A    between atoms: _85  and  _86
REMARK   31  A    between atoms: _85  and  _88
REMARK   32  A    between atoms: _88  and  _89
REMARK   33  A    between atoms: _89  and  _90
REMARK   34  A    between atoms: _95  and  _97
REMARK   35  A    between atoms: _97  and  _98
REMARK   36  A    between atoms: _97  and  _100
REMARK   37  A    between atoms: _100  and  _101
REMARK   38  A    between atoms: _107  and  _109
REMARK   39  A    between atoms: _118  and  _121
REMARK   40  A    between atoms: _121  and  _122
REMARK   41  A    between atoms: _130  and  _131
REMARK   42  A    between atoms: _139  and  _141
REMARK   43  A    between atoms: _141  and  _142
REMARK   44  A    between atoms: _141  and  _144
REMARK   45  A    between atoms: _144  and  _145
REMARK   46  A    between atoms: _145  and  _146
REMARK   47  A    between atoms: _149  and  _151
REMARK   48  A    between atoms: _151  and  _152
REMARK   49  A    between atoms: _151  and  _154
REMARK   50  A    between atoms: _154  and  _155
REMARK   51  A    between atoms: _160  and  _162
REMARK   52  A    between atoms: _162  and  _163
REMARK   53  A    between atoms: _162  and  _165
REMARK   54  A    between atoms: _165  and  _166
REMARK   55  A    between atoms: _166  and  _167
REMARK   56  A    between atoms: _170  and  _172
REMARK   57  A    between atoms: _172  and  _173
REMARK   58  A    between atoms: _172  and  _175
REMARK   59  A    between atoms: _175  and  _176
REMARK   60  A    between atoms: _179  and  _181
REMARK   61  A    between atoms: _181  and  _182
REMARK   62  A    between atoms: _181  and  _184
REMARK   63  A    between atoms: _184  and  _185
REMARK   64  A    between atoms: _186  and  ZN_394
REMARK   65  A    between atoms: _190  and  _192
REMARK   66  A    between atoms: _192  and  _193
REMARK   67  A    between atoms: _192  and  _195
REMARK   68  A    between atoms: _195  and  _196
REMARK   69  A    between atoms: _199  and  _201
REMARK   70  A    between atoms: _201  and  _202
REMARK   71  A    between atoms: _201  and  _204
REMARK   72  A    between atoms: _207  and  _209
REMARK   73  A    between atoms: _209  and  _210
REMARK   74  A    between atoms: _209  and  _212
REMARK   75  A    between atoms: _212  and  _213
REMARK   76  A    between atoms: _218  and  _220
REMARK   77  A    between atoms: _220  and  _221
REMARK   78  A    between atoms: _220  and  _223
REMARK   79  A    between atoms: _223  and  _224
REMARK   80  A    between atoms: _230  and  _232
REMARK   81  A    between atoms: _232  and  _233
REMARK   82  A    between atoms: _232  and  _235
REMARK   83  A    between atoms: _238  and  _240
REMARK   84  A    between atoms: _240  and  _241
REMARK   85  A    between atoms: _240  and  _243
REMARK   86  A    between atoms: _243  and  _244
REMARK   87  A    between atoms: _247  and  _249
REMARK   88  A    between atoms: _249  and  _250
REMARK   89  A    between atoms: _253  and  _255
REMARK   90  A    between atoms: _255  and  _256
REMARK   91  A    between atoms: _255  and  _258
REMARK   92  A    between atoms: _261  and  _263
REMARK   93  A    between atoms: _263  and  _264
REMARK   94  A    between atoms: _263  and  _266
REMARK   95  A    between atoms: _266  and  _267
REMARK   96  A    between atoms: _270  and  _272
REMARK   97  A    between atoms: _272  and  _273
REMARK   98  A    between atoms: _275  and  _277
REMARK   99  A    between atoms: _277  and  _278
REMARK  100  A    between atoms: _277  and  _280
REMARK  101  A    between atoms: _280  and  _281
REMARK  102  A    between atoms: _283  and  _285
REMARK  103  A    between atoms: _285  and  _286
REMARK  104  A    between atoms: _285  and  _288
REMARK  105  A    between atoms: _288  and  _289
REMARK  106  A    between atoms: _292  and  _294
REMARK  107  A    between atoms: _294  and  _295
REMARK  108  A    between atoms: _294  and  _297
REMARK  109  A    between atoms: _297  and  _298
REMARK  110  A    between atoms: _301  and  _303
REMARK  111  A    between atoms: _303  and  _304
REMARK  112  A    between atoms: _303  and  _306
REMARK  113  A    between atoms: _306  and  _307
REMARK  114  A    between atoms: _311  and  _312
REMARK  115  A    between atoms: _318  and  _319
REMARK  116  A    between atoms: _324  and  _326
REMARK  117  A    between atoms: _326  and  _327
REMARK  118  A    between atoms: _326  and  _329
REMARK  119  A    between atoms: _329  and  _330
REMARK  120  A    between atoms: _333  and  _335
REMARK  121  A    between atoms: _335  and  _336
REMARK  122  A    between atoms: _335  and  _338
REMARK  123  A    between atoms: _338  and  _339
REMARK  124  A    between atoms: _342  and  _344
REMARK  125  A    between atoms: _344  and  _345
REMARK  126  A    between atoms: _344  and  _347
REMARK  127  A    between atoms: _350  and  _352
REMARK  128  A    between atoms: _352  and  _353
REMARK  129  A    between atoms: _352  and  _355
REMARK  130  A    between atoms: _355  and  _356
REMARK  131  A    between atoms: _366  and  _368
REMARK  132  A    between atoms: _368  and  _369
REMARK  133  A    between atoms: _368  and  _371
REMARK  134  A    between atoms: _371  and  _372
REMARK  135  A    between atoms: _377  and  _379
REMARK  136  A    between atoms: _379  and  _380
REMARK  137  A    between atoms: _379  and  _382
REMARK  138  A    between atoms: _382  and  _383
REMARK  139  A    between atoms: _383  and  _384
REMARK  140  A    between atoms: _384  and  _385
REMARK                            x       y       z     vdW  Elec       q    Type
REMARK                         _______ _______ _______ _____ _____    ______ ____
ROOT
ATOM      1  O   HOH     1      19.620  -4.143  15.710  0.00  0.00    +0.000 OA
ENDROOT
TORSDOF 0
REMARK  Name = ../refined-set-2016/4jsa/4jsa_pocket.pdb
REMARK  140 active torsions:
REMARK  status: ('A' for Active; 'I' for Inactive)
REMARK    1  A    between atoms: _1  and  _3
REMARK    2  A    between atoms: _3  and  _4
REMARK    3  A    between atoms: _3  and  _6
REMARK    4  A    between atoms: _6  and  _7
REMARK    5  A    between atoms: _17  and  _19
REMARK    6  A    between atoms: _19  and  _20
REMARK    7  A    between atoms: _19  and  _22
REMARK    8  A    between atoms: _22  and  _23
REMARK    9  A    between atoms: _28  and  _29
REMARK   10  A    between atoms: _31  and  _33
REMARK   11  A    between atoms: _33  and  _34
REMARK   12  A    between atoms: _33  and  _36
REMARK   13  A    between atoms: _36  and  _37
REMARK   14  A    between atoms: _40  and  _41
REMARK   15  A    between atoms: _46  and  _48
REMARK   16  A    between atoms: _48  and  _49
REMARK   17  A    between atoms: _48  and  _51
REMARK   18  A    between atoms: _51  and  _52
REMARK   19  A    between atoms: _57  and  _59
REMARK   20  A    between atoms: _59  and  _60
REMARK   21  A    between atoms: _63  and  _65
REMARK   22  A    between atoms: _65  and  _66
REMARK   23  A    between atoms: _65  and  _68
REMARK   24  A    between atoms: _68  and  _69
REMARK   25  A    between atoms: _74  and  _76
REMARK   26  A    between atoms: _76  and  _77
REMARK   27  A    between atoms: _76  and  _79
REMARK   28  A    between atoms: _79  and  _80
REMARK   29  A    between atoms: _83  and  _85
REMARK   30  A    between atoms: _85  and  _86
REMARK   31  A    between atoms: _85  and  _88
REMARK   32  A    between atoms: _88  and  _89
REMARK   33  A    between atoms: _89  and  _90
REMARK   34  A    between atoms: _95  and  _97
REMARK   35  A    between atoms: _97  and  _98
REMARK   36  A    between atoms: _97  and  _100
REMARK   37  A    between atoms: _100  and  _101
REMARK   38  A    between atoms: _107  and  _109
REMARK   39  A    between atoms: _118  and  _121
REMARK   40  A    between atoms: _121  and  _122
REMARK   41  A    between atoms: _130  and  _131
REMARK   42  A    between atoms: _139  and  _141
REMARK   43  A    between atoms: _141  and  _142
REMARK   44  A    between atoms: _141  and  _144
REMARK   45  A    between atoms: _144  and  _145
REMARK   46  A    between atoms: _145  and  _146
REMARK   47  A    between atoms: _149  and  _151
REMARK   48  A    between atoms: _151  and  _152
REMARK   49  A    between atoms: _151  and  _154
REMARK   50  A    between atoms: _154  and  _155
REMARK   51  A    between atoms: _160  and  _162
REMARK   52  A    between atoms: _162  and  _163
REMARK   53  A    between atoms: _162  and  _165
REMARK   54  A    between atoms: _165  and  _166
REMARK   55  A    between atoms: _166  and  _167
REMARK   56  A    between atoms: _170  and  _172
REMARK   57  A    between atoms: _172  and  _173
REMARK   58  A    between atoms: _172  and  _175
REMARK   59  A    between atoms: _175  and  _176
REMARK   60  A    between atoms: _179  and  _181
REMARK   61  A    between atoms: _181  and  _182
REMARK   62  A    between atoms: _181  and  _184
REMARK   63  A    between atoms: _184  and  _185
REMARK   64  A    between atoms: _186  and  ZN_394
REMARK   65  A    between atoms: _190  and  _192
REMARK   66  A    between atoms: _192  and  _193
REMARK   67  A    between atoms: _192  and  _195
REMARK   68  A    between atoms: _195  and  _196
REMARK   69  A    between atoms: _199  and  _201
REMARK   70  A    between atoms: _201  and  _202
REMARK   71  A    between atoms: _201  and  _204
REMARK   72  A    between atoms: _207  and  _209
REMARK   73  A    between atoms: _209  and  _210
REMARK   74  A    between atoms: _209  and  _212
REMARK   75  A    between atoms: _212  and  _213
REMARK   76  A    between atoms: _218  and  _220
REMARK   77  A    between atoms: _220  and  _221
REMARK   78  A    between atoms: _220  and  _223
REMARK   79  A    between atoms: _223  and  _224
REMARK   80  A    between atoms: _230  and  _232
REMARK   81  A    between atoms: _232  and  _233
REMARK   82  A    between atoms: _232  and  _235
REMARK   83  A    between atoms: _238  and  _240
REMARK   84  A    between atoms: _240  and  _241
REMARK   85  A    between atoms: _240  and  _243
REMARK   86  A    between atoms: _243  and  _244
REMARK   87  A    between atoms: _247  and  _249
REMARK   88  A    between atoms: _249  and  _250
REMARK   89  A    between atoms: _253  and  _255
REMARK   90  A    between atoms: _255  and  _256
REMARK   91  A    between atoms: _255  and  _258
REMARK   92  A    between atoms: _261  and  _263
REMARK   93  A    between atoms: _263  and  _264
REMARK   94  A    between atoms: _263  and  _266
REMARK   95  A    between atoms: _266  and  _267
REMARK   96  A    between atoms: _270  and  _272
REMARK   97  A    between atoms: _272  and  _273
REMARK   98  A    between atoms: _275  and  _277
REMARK   99  A    between atoms: _277  and  _278
REMARK  100  A    between atoms: _277  and  _280
REMARK  101  A    between atoms: _280  and  _281
REMARK  102  A    between atoms: _283  and  _285
REMARK  103  A    between atoms: _285  and  _286
REMARK  104  A    between atoms: _285  and  _288
REMARK  105  A    between atoms: _288  and  _289
REMARK  106  A    between atoms: _292  and  _294
REMARK  107  A    between atoms: _294  and  _295
REMARK  108  A    between atoms: _294  and  _297
REMARK  109  A    between atoms: _297  and  _298
REMARK  110  A    between atoms: _301  and  _303
REMARK  111  A    between atoms: _303  and  _304
REMARK  112  A    between atoms: _303  and  _306
REMARK  113  A    between atoms: _306  and  _307
REMARK  114  A    between atoms: _311  and  _312
REMARK  115  A    between atoms: _318  and  _319
REMARK  116  A    between atoms: _324  and  _326
REMARK  117  A    between atoms: _326  and  _327
REMARK  118  A    between atoms: _326  and  _329
REMARK  119  A    between atoms: _329  and  _330
REMARK  120  A    between atoms: _333  and  _335
REMARK  121  A    between atoms: _335  and  _336
REMARK  122  A    between atoms: _335  and  _338
REMARK  123  A    between atoms: _338  and  _339
REMARK  124  A    between atoms: _342  and  _344
REMARK  125  A    between atoms: _344  and  _345
REMARK  126  A    between atoms: _344  and  _347
REMARK  127  A    between atoms: _350  and  _352
REMARK  128  A    between atoms: _352  and  _353
REMARK  129  A    between atoms: _352  and  _355
REMARK  130  A    between atoms: _355  and  _356
REMARK  131  A    between atoms: _366  and  _368
REMARK  132  A    between atoms: _368  and  _369
REMARK  133  A    between atoms: _368  and  _371
REMARK  134  A    between atoms: _371  and  _372
REMARK  135  A    between atoms: _377  and  _379
REMARK  136  A    between atoms: _379  and  _380
REMARK  137  A    between atoms: _379  and  _382
REMARK  138  A    between atoms: _382  and  _383
REMARK  139  A    between atoms: _383  and  _384
REMARK  140  A    between atoms: _384  and  _385
REMARK                            x       y       z     vdW  Elec       q    Type
REMARK                         _______ _______ _______ _____ _____    ______ ____
ROOT
ATOM      1  O   HOH     1      18.337  -2.911  11.409  0.00  0.00    +0.000 OA
ENDROOT
TORSDOF 0
REMARK  Name = ../refined-set-2016/4jsa/4jsa_pocket.pdb
REMARK  140 active torsions:
REMARK  status: ('A' for Active; 'I' for Inactive)
REMARK    1  A    between atoms: _1  and  _3
REMARK    2  A    between atoms: _3  and  _4
REMARK    3  A    between atoms: _3  and  _6
REMARK    4  A    between atoms: _6  and  _7
REMARK    5  A    between atoms: _17  and  _19
REMARK    6  A    between atoms: _19  and  _20
REMARK    7  A    between atoms: _19  and  _22
REMARK    8  A    between atoms: _22  and  _23
REMARK    9  A    between atoms: _28  and  _29
REMARK   10  A    between atoms: _31  and  _33
REMARK   11  A    between atoms: _33  and  _34
REMARK   12  A    between atoms: _33  and  _36
REMARK   13  A    between atoms: _36  and  _37
REMARK   14  A    between atoms: _40  and  _41
REMARK   15  A    between atoms: _46  and  _48
REMARK   16  A    between atoms: _48  and  _49
REMARK   17  A    between atoms: _48  and  _51
REMARK   18  A    between atoms: _51  and  _52
REMARK   19  A    between atoms: _57  and  _59
REMARK   20  A    between atoms: _59  and  _60
REMARK   21  A    between atoms: _63  and  _65
REMARK   22  A    between atoms: _65  and  _66
REMARK   23  A    between atoms: _65  and  _68
REMARK   24  A    between atoms: _68  and  _69
REMARK   25  A    between atoms: _74  and  _76
REMARK   26  A    between atoms: _76  and  _77
REMARK   27  A    between atoms: _76  and  _79
REMARK   28  A    between atoms: _79  and  _80
REMARK   29  A    between atoms: _83  and  _85
REMARK   30  A    between atoms: _85  and  _86
REMARK   31  A    between atoms: _85  and  _88
REMARK   32  A    between atoms: _88  and  _89
REMARK   33  A    between atoms: _89  and  _90
REMARK   34  A    between atoms: _95  and  _97
REMARK   35  A    between atoms: _97  and  _98
REMARK   36  A    between atoms: _97  and  _100
REMARK   37  A    between atoms: _100  and  _101
REMARK   38  A    between atoms: _107  and  _109
REMARK   39  A    between atoms: _118  and  _121
REMARK   40  A    between atoms: _121  and  _122
REMARK   41  A    between atoms: _130  and  _131
REMARK   42  A    between atoms: _139  and  _141
REMARK   43  A    between atoms: _141  and  _142
REMARK   44  A    between atoms: _141  and  _144
REMARK   45  A    between atoms: _144  and  _145
REMARK   46  A    between atoms: _145  and  _146
REMARK   47  A    between atoms: _149  and  _151
REMARK   48  A    between atoms: _151  and  _152
REMARK   49  A    between atoms: _151  and  _154
REMARK   50  A    between atoms: _154  and  _155
REMARK   51  A    between atoms: _160  and  _162
REMARK   52  A    between atoms: _162  and  _163
REMARK   53  A    between atoms: _162  and  _165
REMARK   54  A    between atoms: _165  and  _166
REMARK   55  A    between atoms: _166  and  _167
REMARK   56  A    between atoms: _170  and  _172
REMARK   57  A    between atoms: _172  and  _173
REMARK   58  A    between atoms: _172  and  _175
REMARK   59  A    between atoms: _175  and  _176
REMARK   60  A    between atoms: _179  and  _181
REMARK   61  A    between atoms: _181  and  _182
REMARK   62  A    between atoms: _181  and  _184
REMARK   63  A    between atoms: _184  and  _185
REMARK   64  A    between atoms: _186  and  ZN_394
REMARK   65  A    between atoms: _190  and  _192
REMARK   66  A    between atoms: _192  and  _193
REMARK   67  A    between atoms: _192  and  _195
REMARK   68  A    between atoms: _195  and  _196
REMARK   69  A    between atoms: _199  and  _201
REMARK   70  A    between atoms: _201  and  _202
REMARK   71  A    between atoms: _201  and  _204
REMARK   72  A    between atoms: _207  and  _209
REMARK   73  A    between atoms: _209  and  _210
REMARK   74  A    between atoms: _209  and  _212
REMARK   75  A    between atoms: _212  and  _213
REMARK   76  A    between atoms: _218  and  _220
REMARK   77  A    between atoms: _220  and  _221
REMARK   78  A    between atoms: _220  and  _223
REMARK   79  A    between atoms: _223  and  _224
REMARK   80  A    between atoms: _230  and  _232
REMARK   81  A    between atoms: _232  and  _233
REMARK   82  A    between atoms: _232  and  _235
REMARK   83  A    between atoms: _238  and  _240
REMARK   84  A    between atoms: _240  and  _241
REMARK   85  A    between atoms: _240  and  _243
REMARK   86  A    between atoms: _243  and  _244
REMARK   87  A    between atoms: _247  and  _249
REMARK   88  A    between atoms: _249  and  _250
REMARK   89  A    between atoms: _253  and  _255
REMARK   90  A    between atoms: _255  and  _256
REMARK   91  A    between atoms: _255  and  _258
REMARK   92  A    between atoms: _261  and  _263
REMARK   93  A    between atoms: _263  and  _264
REMARK   94  A    between atoms: _263  and  _266
REMARK   95  A    between atoms: _266  and  _267
REMARK   96  A    between atoms: _270  and  _272
REMARK   97  A    between atoms: _272  and  _273
REMARK   98  A    between atoms: _275  and  _277
REMARK   99  A    between atoms: _277  and  _278
REMARK  100  A    between atoms: _277  and  _280
REMARK  101  A    between atoms: _280  and  _281
REMARK  102  A    between atoms: _283  and  _285
REMARK  103  A    between atoms: _285  and  _286
REMARK  104  A    between atoms: _285  and  _288
REMARK  105  A    between atoms: _288  and  _289
REMARK  106  A    between atoms: _292  and  _294
REMARK  107  A    between atoms: _294  and  _295
REMARK  108  A    between atoms: _294  and  _297
REMARK  109  A    between atoms: _297  and  _298
REMARK  110  A    between atoms: _301  and  _303
REMARK  111  A    between atoms: _303  and  _304
REMARK  112  A    between atoms: _303  and  _306
REMARK  113  A    between atoms: _306  and  _307
REMARK  114  A    between atoms: _311  and  _312
REMARK  115  A    between atoms: _318  and  _319
REMARK  116  A    between atoms: _324  and  _326
REMARK  117  A    between atoms: _326  and  _327
REMARK  118  A    between atoms: _326  and  _329
REMARK  119  A    between atoms: _329  and  _330
REMARK  120  A    between atoms: _333  and  _335
REMARK  121  A    between atoms: _335  and  _336
REMARK  122  A    between atoms: _335  and  _338
REMARK  123  A    between atoms: _338  and  _339
REMARK  124  A    between atoms: _342  and  _344
REMARK  125  A    between atoms: _344  and  _345
REMARK  126  A    between atoms: _344  and  _347
REMARK  127  A    between atoms: _350  and  _352
REMARK  128  A    between atoms: _352  and  _353
REMARK  129  A    between atoms: _352  and  _355
REMARK  130  A    between atoms: _355  and  _356
REMARK  131  A    between atoms: _366  and  _368
REMARK  132  A    between atoms: _368  and  _369
REMARK  133  A    between atoms: _368  and  _371
REMARK  134  A    between atoms: _371  and  _372
REMARK  135  A    between atoms: _377  and  _379
REMARK  136  A    between atoms: _379  and  _380
REMARK  137  A    between atoms: _379  and  _382
REMARK  138  A    between atoms: _382  and  _383
REMARK  139  A    between atoms: _383  and  _384
REMARK  140  A    between atoms: _384  and  _385
REMARK                            x       y       z     vdW  Elec       q    Type
REMARK                         _______ _______ _______ _____ _____    ______ ____
ROOT
ATOM      1  O   HOH     1      18.445  -0.185  10.222  0.00  0.00    +0.000 OA
ENDROOT
TORSDOF 0
REMARK  Name = ../refined-set-2016/4jsa/4jsa_pocket.pdb
REMARK  140 active torsions:
REMARK  status: ('A' for Active; 'I' for Inactive)
REMARK    1  A    between atoms: _1  and  _3
REMARK    2  A    between atoms: _3  and  _4
REMARK    3  A    between atoms: _3  and  _6
REMARK    4  A    between atoms: _6  and  _7
REMARK    5  A    between atoms: _17  and  _19
REMARK    6  A    between atoms: _19  and  _20
REMARK    7  A    between atoms: _19  and  _22
REMARK    8  A    between atoms: _22  and  _23
REMARK    9  A    between atoms: _28  and  _29
REMARK   10  A    between atoms: _31  and  _33
REMARK   11  A    between atoms: _33  and  _34
REMARK   12  A    between atoms: _33  and  _36
REMARK   13  A    between atoms: _36  and  _37
REMARK   14  A    between atoms: _40  and  _41
REMARK   15  A    between atoms: _46  and  _48
REMARK   16  A    between atoms: _48  and  _49
REMARK   17  A    between atoms: _48  and  _51
REMARK   18  A    between atoms: _51  and  _52
REMARK   19  A    between atoms: _57  and  _59
REMARK   20  A    between atoms: _59  and  _60
REMARK   21  A    between atoms: _63  and  _65
REMARK   22  A    between atoms: _65  and  _66
REMARK   23  A    between atoms: _65  and  _68
REMARK   24  A    between atoms: _68  and  _69
REMARK   25  A    between atoms: _74  and  _76
REMARK   26  A    between atoms: _76  and  _77
REMARK   27  A    between atoms: _76  and  _79
REMARK   28  A    between atoms: _79  and  _80
REMARK   29  A    between atoms: _83  and  _85
REMARK   30  A    between atoms: _85  and  _86
REMARK   31  A    between atoms: _85  and  _88
REMARK   32  A    between atoms: _88  and  _89
REMARK   33  A    between atoms: _89  and  _90
REMARK   34  A    between atoms: _95  and  _97
REMARK   35  A    between atoms: _97  and  _98
REMARK   36  A    between atoms: _97  and  _100
REMARK   37  A    between atoms: _100  and  _101
REMARK   38  A    between atoms: _107  and  _109
REMARK   39  A    between atoms: _118  and  _121
REMARK   40  A    between atoms: _121  and  _122
REMARK   41  A    between atoms: _130  and  _131
REMARK   42  A    between atoms: _139  and  _141
REMARK   43  A    between atoms: _141  and  _142
REMARK   44  A    between atoms: _141  and  _144
REMARK   45  A    between atoms: _144  and  _145
REMARK   46  A    between atoms: _145  and  _146
REMARK   47  A    between atoms: _149  and  _151
REMARK   48  A    between atoms: _151  and  _152
REMARK   49  A    between atoms: _151  and  _154
REMARK   50  A    between atoms: _154  and  _155
REMARK   51  A    between atoms: _160  and  _162
REMARK   52  A    between atoms: _162  and  _163
REMARK   53  A    between atoms: _162  and  _165
REMARK   54  A    between atoms: _165  and  _166
REMARK   55  A    between atoms: _166  and  _167
REMARK   56  A    between atoms: _170  and  _172
REMARK   57  A    between atoms: _172  and  _173
REMARK   58  A    between atoms: _172  and  _175
REMARK   59  A    between atoms: _175  and  _176
REMARK   60  A    between atoms: _179  and  _181
REMARK   61  A    between atoms: _181  and  _182
REMARK   62  A    between atoms: _181  and  _184
REMARK   63  A    between atoms: _184  and  _185
REMARK   64  A    between atoms: _186  and  ZN_394
REMARK   65  A    between atoms: _190  and  _192
REMARK   66  A    between atoms: _192  and  _193
REMARK   67  A    between atoms: _192  and  _195
REMARK   68  A    between atoms: _195  and  _196
REMARK   69  A    between atoms: _199  and  _201
REMARK   70  A    between atoms: _201  and  _202
REMARK   71  A    between atoms: _201  and  _204
REMARK   72  A    between atoms: _207  and  _209
REMARK   73  A    between atoms: _209  and  _210
REMARK   74  A    between atoms: _209  and  _212
REMARK   75  A    between atoms: _212  and  _213
REMARK   76  A    between atoms: _218  and  _220
REMARK   77  A    between atoms: _220  and  _221
REMARK   78  A    between atoms: _220  and  _223
REMARK   79  A    between atoms: _223  and  _224
REMARK   80  A    between atoms: _230  and  _232
REMARK   81  A    between atoms: _232  and  _233
REMARK   82  A    between atoms: _232  and  _235
REMARK   83  A    between atoms: _238  and  _240
REMARK   84  A    between atoms: _240  and  _241
REMARK   85  A    between atoms: _240  and  _243
REMARK   86  A    between atoms: _243  and  _244
REMARK   87  A    between atoms: _247  and  _249
REMARK   88  A    between atoms: _249  and  _250
REMARK   89  A    between atoms: _253  and  _255
REMARK   90  A    between atoms: _255  and  _256
REMARK   91  A    between atoms: _255  and  _258
REMARK   92  A    between atoms: _261  and  _263
REMARK   93  A    between atoms: _263  and  _264
REMARK   94  A    between atoms: _263  and  _266
REMARK   95  A    between atoms: _266  and  _267
REMARK   96  A    between atoms: _270  and  _272
REMARK   97  A    between atoms: _272  and  _273
REMARK   98  A    between atoms: _275  and  _277
REMARK   99  A    between atoms: _277  and  _278
REMARK  100  A    between atoms: _277  and  _280
REMARK  101  A    between atoms: _280  and  _281
REMARK  102  A    between atoms: _283  and  _285
REMARK  103  A    between atoms: _285  and  _286
REMARK  104  A    between atoms: _285  and  _288
REMARK  105  A    between atoms: _288  and  _289
REMARK  106  A    between atoms: _292  and  _294
REMARK  107  A    between atoms: _294  and  _295
REMARK  108  A    between atoms: _294  and  _297
REMARK  109  A    between atoms: _297  and  _298
REMARK  110  A    between atoms: _301  and  _303
REMARK  111  A    between atoms: _303  and  _304
REMARK  112  A    between atoms: _303  and  _306
REMARK  113  A    between atoms: _306  and  _307
REMARK  114  A    between atoms: _311  and  _312
REMARK  115  A    between atoms: _318  and  _319
REMARK  116  A    between atoms: _324  and  _326
REMARK  117  A    between atoms: _326  and  _327
REMARK  118  A    between atoms: _326  and  _329
REMARK  119  A    between atoms: _329  and  _330
REMARK  120  A    between atoms: _333  and  _335
REMARK  121  A    between atoms: _335  and  _336
REMARK  122  A    between atoms: _335  and  _338
REMARK  123  A    between atoms: _338  and  _339
REMARK  124  A    between atoms: _342  and  _344
REMARK  125  A    between atoms: _344  and  _345
REMARK  126  A    between atoms: _344  and  _347
REMARK  127  A    between atoms: _350  and  _352
REMARK  128  A    between atoms: _352  and  _353
REMARK  129  A    between atoms: _352  and  _355
REMARK  130  A    between atoms: _355  and  _356
REMARK  131  A    between atoms: _366  and  _368
REMARK  132  A    between atoms: _368  and  _369
REMARK  133  A    between atoms: _368  and  _371
REMARK  134  A    between atoms: _371  and  _372
REMARK  135  A    between atoms: _377  and  _379
REMARK  136  A    between atoms: _379  and  _380
REMARK  137  A    between atoms: _379  and  _382
REMARK  138  A    between atoms: _382  and  _383
REMARK  139  A    between atoms: _383  and  _384
REMARK  140  A    between atoms: _384  and  _385
REMARK                            x       y       z     vdW  Elec       q    Type
REMARK                         _______ _______ _______ _____ _____    ______ ____
ROOT
ATOM      1  O   HOH     1      15.676  -0.140  10.007  0.00  0.00    +0.000 OA
ENDROOT
TORSDOF 0
REMARK  Name = ../refined-set-2016/4jsa/4jsa_pocket.pdb
REMARK  140 active torsions:
REMARK  status: ('A' for Active; 'I' for Inactive)
REMARK    1  A    between atoms: _1  and  _3
REMARK    2  A    between atoms: _3  and  _4
REMARK    3  A    between atoms: _3  and  _6
REMARK    4  A    between atoms: _6  and  _7
REMARK    5  A    between atoms: _17  and  _19
REMARK    6  A    between atoms: _19  and  _20
REMARK    7  A    between atoms: _19  and  _22
REMARK    8  A    between atoms: _22  and  _23
REMARK    9  A    between atoms: _28  and  _29
REMARK   10  A    between atoms: _31  and  _33
REMARK   11  A    between atoms: _33  and  _34
REMARK   12  A    between atoms: _33  and  _36
REMARK   13  A    between atoms: _36  and  _37
REMARK   14  A    between atoms: _40  and  _41
REMARK   15  A    between atoms: _46  and  _48
REMARK   16  A    between atoms: _48  and  _49
REMARK   17  A    between atoms: _48  and  _51
REMARK   18  A    between atoms: _51  and  _52
REMARK   19  A    between atoms: _57  and  _59
REMARK   20  A    between atoms: _59  and  _60
REMARK   21  A    between atoms: _63  and  _65
REMARK   22  A    between atoms: _65  and  _66
REMARK   23  A    between atoms: _65  and  _68
REMARK   24  A    between atoms: _68  and  _69
REMARK   25  A    between atoms: _74  and  _76
REMARK   26  A    between atoms: _76  and  _77
REMARK   27  A    between atoms: _76  and  _79
REMARK   28  A    between atoms: _79  and  _80
REMARK   29  A    between atoms: _83  and  _85
REMARK   30  A    between atoms: _85  and  _86
REMARK   31  A    between atoms: _85  and  _88
REMARK   32  A    between atoms: _88  and  _89
REMARK   33  A    between atoms: _89  and  _90
REMARK   34  A    between atoms: _95  and  _97
REMARK   35  A    between atoms: _97  and  _98
REMARK   36  A    between atoms: _97  and  _100
REMARK   37  A    between atoms: _100  and  _101
REMARK   38  A    between atoms: _107  and  _109
REMARK   39  A    between atoms: _118  and  _121
REMARK   40  A    between atoms: _121  and  _122
REMARK   41  A    between atoms: _130  and  _131
REMARK   42  A    between atoms: _139  and  _141
REMARK   43  A    between atoms: _141  and  _142
REMARK   44  A    between atoms: _141  and  _144
REMARK   45  A    between atoms: _144  and  _145
REMARK   46  A    between atoms: _145  and  _146
REMARK   47  A    between atoms: _149  and  _151
REMARK   48  A    between atoms: _151  and  _152
REMARK   49  A    between atoms: _151  and  _154
REMARK   50  A    between atoms: _154  and  _155
REMARK   51  A    between atoms: _160  and  _162
REMARK   52  A    between atoms: _162  and  _163
REMARK   53  A    between atoms: _162  and  _165
REMARK   54  A    between atoms: _165  and  _166
REMARK   55  A    between atoms: _166  and  _167
REMARK   56  A    between atoms: _170  and  _172
REMARK   57  A    between atoms: _172  and  _173
REMARK   58  A    between atoms: _172  and  _175
REMARK   59  A    between atoms: _175  and  _176
REMARK   60  A    between atoms: _179  and  _181
REMARK   61  A    between atoms: _181  and  _182
REMARK   62  A    between atoms: _181  and  _184
REMARK   63  A    between atoms: _184  and  _185
REMARK   64  A    between atoms: _186  and  ZN_394
REMARK   65  A    between atoms: _190  and  _192
REMARK   66  A    between atoms: _192  and  _193
REMARK   67  A    between atoms: _192  and  _195
REMARK   68  A    between atoms: _195  and  _196
REMARK   69  A    between atoms: _199  and  _201
REMARK   70  A    between atoms: _201  and  _202
REMARK   71  A    between atoms: _201  and  _204
REMARK   72  A    between atoms: _207  and  _209
REMARK   73  A    between atoms: _209  and  _210
REMARK   74  A    between atoms: _209  and  _212
REMARK   75  A    between atoms: _212  and  _213
REMARK   76  A    between atoms: _218  and  _220
REMARK   77  A    between atoms: _220  and  _221
REMARK   78  A    between atoms: _220  and  _223
REMARK   79  A    between atoms: _223  and  _224
REMARK   80  A    between atoms: _230  and  _232
REMARK   81  A    between atoms: _232  and  _233
REMARK   82  A    between atoms: _232  and  _235
REMARK   83  A    between atoms: _238  and  _240
REMARK   84  A    between atoms: _240  and  _241
REMARK   85  A    between atoms: _240  and  _243
REMARK   86  A    between atoms: _243  and  _244
REMARK   87  A    between atoms: _247  and  _249
REMARK   88  A    between atoms: _249  and  _250
REMARK   89  A    between atoms: _253  and  _255
REMARK   90  A    between atoms: _255  and  _256
REMARK   91  A    between atoms: _255  and  _258
REMARK   92  A    between atoms: _261  and  _263
REMARK   93  A    between atoms: _263  and  _264
REMARK   94  A    between atoms: _263  and  _266
REMARK   95  A    between atoms: _266  and  _267
REMARK   96  A    between atoms: _270  and  _272
REMARK   97  A    between atoms: _272  and  _273
REMARK   98  A    between atoms: _275  and  _277
REMARK   99  A    between atoms: _277  and  _278
REMARK  100  A    between atoms: _277  and  _280
REMARK  101  A    between atoms: _280  and  _281
REMARK  102  A    between atoms: _283  and  _285
REMARK  103  A    between atoms: _285  and  _286
REMARK  104  A    between atoms: _285  and  _288
REMARK  105  A    between atoms: _288  and  _289
REMARK  106  A    between atoms: _292  and  _294
REMARK  107  A    between atoms: _294  and  _295
REMARK  108  A    between atoms: _294  and  _297
REMARK  109  A    between atoms: _297  and  _298
REMARK  110  A    between atoms: _301  and  _303
REMARK  111  A    between atoms: _303  and  _304
REMARK  112  A    between atoms: _303  and  _306
REMARK  113  A    between atoms: _306  and  _307
REMARK  114  A    between atoms: _311  and  _312
REMARK  115  A    between atoms: _318  and  _319
REMARK  116  A    between atoms: _324  and  _326
REMARK  117  A    between atoms: _326  and  _327
REMARK  118  A    between atoms: _326  and  _329
REMARK  119  A    between atoms: _329  and  _330
REMARK  120  A    between atoms: _333  and  _335
REMARK  121  A    between atoms: _335  and  _336
REMARK  122  A    between atoms: _335  and  _338
REMARK  123  A    between atoms: _338  and  _339
REMARK  124  A    between atoms: _342  and  _344
REMARK  125  A    between atoms: _344  and  _345
REMARK  126  A    between atoms: _344  and  _347
REMARK  127  A    between atoms: _350  and  _352
REMARK  128  A    between atoms: _352  and  _353
REMARK  129  A    between atoms: _352  and  _355
REMARK  130  A    between atoms: _355  and  _356
REMARK  131  A    between atoms: _366  and  _368
REMARK  132  A    between atoms: _368  and  _369
REMARK  133  A    between atoms: _368  and  _371
REMARK  134  A    between atoms: _371  and  _372
REMARK  135  A    between atoms: _377  and  _379
REMARK  136  A    between atoms: _379  and  _380
REMARK  137  A    between atoms: _379  and  _382
REMARK  138  A    between atoms: _382  and  _383
REMARK  139  A    between atoms: _383  and  _384
REMARK  140  A    between atoms: _384  and  _385
REMARK                            x       y       z     vdW  Elec       q    Type
REMARK                         _______ _______ _______ _____ _____    ______ ____
ROOT
ATOM      1  O   HOH     1      12.727   7.033   8.138  0.00  0.00    +0.000 OA
ENDROOT
TORSDOF 0
REMARK  Name = ../refined-set-2016/4jsa/4jsa_pocket.pdb
REMARK  140 active torsions:
REMARK  status: ('A' for Active; 'I' for Inactive)
REMARK    1  A    between atoms: _1  and  _3
REMARK    2  A    between atoms: _3  and  _4
REMARK    3  A    between atoms: _3  and  _6
REMARK    4  A    between atoms: _6  and  _7
REMARK    5  A    between atoms: _17  and  _19
REMARK    6  A    between atoms: _19  and  _20
REMARK    7  A    between atoms: _19  and  _22
REMARK    8  A    between atoms: _22  and  _23
REMARK    9  A    between atoms: _28  and  _29
REMARK   10  A    between atoms: _31  and  _33
REMARK   11  A    between atoms: _33  and  _34
REMARK   12  A    between atoms: _33  and  _36
REMARK   13  A    between atoms: _36  and  _37
REMARK   14  A    between atoms: _40  and  _41
REMARK   15  A    between atoms: _46  and  _48
REMARK   16  A    between atoms: _48  and  _49
REMARK   17  A    between atoms: _48  and  _51
REMARK   18  A    between atoms: _51  and  _52
REMARK   19  A    between atoms: _57  and  _59
REMARK   20  A    between atoms: _59  and  _60
REMARK   21  A    between atoms: _63  and  _65
REMARK   22  A    between atoms: _65  and  _66
REMARK   23  A    between atoms: _65  and  _68
REMARK   24  A    between atoms: _68  and  _69
REMARK   25  A    between atoms: _74  and  _76
REMARK   26  A    between atoms: _76  and  _77
REMARK   27  A    between atoms: _76  and  _79
REMARK   28  A    between atoms: _79  and  _80
REMARK   29  A    between atoms: _83  and  _85
REMARK   30  A    between atoms: _85  and  _86
REMARK   31  A    between atoms: _85  and  _88
REMARK   32  A    between atoms: _88  and  _89
REMARK   33  A    between atoms: _89  and  _90
REMARK   34  A    between atoms: _95  and  _97
REMARK   35  A    between atoms: _97  and  _98
REMARK   36  A    between atoms: _97  and  _100
REMARK   37  A    between atoms: _100  and  _101
REMARK   38  A    between atoms: _107  and  _109
REMARK   39  A    between atoms: _118  and  _121
REMARK   40  A    between atoms: _121  and  _122
REMARK   41  A    between atoms: _130  and  _131
REMARK   42  A    between atoms: _139  and  _141
REMARK   43  A    between atoms: _141  and  _142
REMARK   44  A    between atoms: _141  and  _144
REMARK   45  A    between atoms: _144  and  _145
REMARK   46  A    between atoms: _145  and  _146
REMARK   47  A    between atoms: _149  and  _151
REMARK   48  A    between atoms: _151  and  _152
REMARK   49  A    between atoms: _151  and  _154
REMARK   50  A    between atoms: _154  and  _155
REMARK   51  A    between atoms: _160  and  _162
REMARK   52  A    between atoms: _162  and  _163
REMARK   53  A    between atoms: _162  and  _165
REMARK   54  A    between atoms: _165  and  _166
REMARK   55  A    between atoms: _166  and  _167
REMARK   56  A    between atoms: _170  and  _172
REMARK   57  A    between atoms: _172  and  _173
REMARK   58  A    between atoms: _172  and  _175
REMARK   59  A    between atoms: _175  and  _176
REMARK   60  A    between atoms: _179  and  _181
REMARK   61  A    between atoms: _181  and  _182
REMARK   62  A    between atoms: _181  and  _184
REMARK   63  A    between atoms: _184  and  _185
REMARK   64  A    between atoms: _186  and  ZN_394
REMARK   65  A    between atoms: _190  and  _192
REMARK   66  A    between atoms: _192  and  _193
REMARK   67  A    between atoms: _192  and  _195
REMARK   68  A    between atoms: _195  and  _196
REMARK   69  A    between atoms: _199  and  _201
REMARK   70  A    between atoms: _201  and  _202
REMARK   71  A    between atoms: _201  and  _204
REMARK   72  A    between atoms: _207  and  _209
REMARK   73  A    between atoms: _209  and  _210
REMARK   74  A    between atoms: _209  and  _212
REMARK   75  A    between atoms: _212  and  _213
REMARK   76  A    between atoms: _218  and  _220
REMARK   77  A    between atoms: _220  and  _221
REMARK   78  A    between atoms: _220  and  _223
REMARK   79  A    between atoms: _223  and  _224
REMARK   80  A    between atoms: _230  and  _232
REMARK   81  A    between atoms: _232  and  _233
REMARK   82  A    between atoms: _232  and  _235
REMARK   83  A    between atoms: _238  and  _240
REMARK   84  A    between atoms: _240  and  _241
REMARK   85  A    between atoms: _240  and  _243
REMARK   86  A    between atoms: _243  and  _244
REMARK   87  A    between atoms: _247  and  _249
REMARK   88  A    between atoms: _249  and  _250
REMARK   89  A    between atoms: _253  and  _255
REMARK   90  A    between atoms: _255  and  _256
REMARK   91  A    between atoms: _255  and  _258
REMARK   92  A    between atoms: _261  and  _263
REMARK   93  A    between atoms: _263  and  _264
REMARK   94  A    between atoms: _263  and  _266
REMARK   95  A    between atoms: _266  and  _267
REMARK   96  A    between atoms: _270  and  _272
REMARK   97  A    between atoms: _272  and  _273
REMARK   98  A    between atoms: _275  and  _277
REMARK   99  A    between atoms: _277  and  _278
REMARK  100  A    between atoms: _277  and  _280
REMARK  101  A    between atoms: _280  and  _281
REMARK  102  A    between atoms: _283  and  _285
REMARK  103  A    between atoms: _285  and  _286
REMARK  104  A    between atoms: _285  and  _288
REMARK  105  A    between atoms: _288  and  _289
REMARK  106  A    between atoms: _292  and  _294
REMARK  107  A    between atoms: _294  and  _295
REMARK  108  A    between atoms: _294  and  _297
REMARK  109  A    between atoms: _297  and  _298
REMARK  110  A    between atoms: _301  and  _303
REMARK  111  A    between atoms: _303  and  _304
REMARK  112  A    between atoms: _303  and  _306
REMARK  113  A    between atoms: _306  and  _307
REMARK  114  A    between atoms: _311  and  _312
REMARK  115  A    between atoms: _318  and  _319
REMARK  116  A    between atoms: _324  and  _326
REMARK  117  A    between atoms: _326  and  _327
REMARK  118  A    between atoms: _326  and  _329
REMARK  119  A    between atoms: _329  and  _330
REMARK  120  A    between atoms: _333  and  _335
REMARK  121  A    between atoms: _335  and  _336
REMARK  122  A    between atoms: _335  and  _338
REMARK  123  A    between atoms: _338  and  _339
REMARK  124  A    between atoms: _342  and  _344
REMARK  125  A    between atoms: _344  and  _345
REMARK  126  A    between atoms: _344  and  _347
REMARK  127  A    between atoms: _350  and  _352
REMARK  128  A    between atoms: _352  and  _353
REMARK  129  A    between atoms: _352  and  _355
REMARK  130  A    between atoms: _355  and  _356
REMARK  131  A    between atoms: _366  and  _368
REMARK  132  A    between atoms: _368  and  _369
REMARK  133  A    between atoms: _368  and  _371
REMARK  134  A    between atoms: _371  and  _372
REMARK  135  A    between atoms: _377  and  _379
REMARK  136  A    between atoms: _379  and  _380
REMARK  137  A    between atoms: _379  and  _382
REMARK  138  A    between atoms: _382  and  _383
REMARK  139  A    between atoms: _383  and  _384
REMARK  140  A    between atoms: _384  and  _385
REMARK                            x       y       z     vdW  Elec       q    Type
REMARK                         _______ _______ _______ _____ _____    ______ ____
ROOT
ATOM      1  O   HOH     1      17.157   0.078  13.366  0.00  0.00    +0.000 OA
ENDROOT
TORSDOF 0
REMARK  Name = ../refined-set-2016/4jsa/4jsa_pocket.pdb
REMARK  140 active torsions:
REMARK  status: ('A' for Active; 'I' for Inactive)
REMARK    1  A    between atoms: _1  and  _3
REMARK    2  A    between atoms: _3  and  _4
REMARK    3  A    between atoms: _3  and  _6
REMARK    4  A    between atoms: _6  and  _7
REMARK    5  A    between atoms: _17  and  _19
REMARK    6  A    between atoms: _19  and  _20
REMARK    7  A    between atoms: _19  and  _22
REMARK    8  A    between atoms: _22  and  _23
REMARK    9  A    between atoms: _28  and  _29
REMARK   10  A    between atoms: _31  and  _33
REMARK   11  A    between atoms: _33  and  _34
REMARK   12  A    between atoms: _33  and  _36
REMARK   13  A    between atoms: _36  and  _37
REMARK   14  A    between atoms: _40  and  _41
REMARK   15  A    between atoms: _46  and  _48
REMARK   16  A    between atoms: _48  and  _49
REMARK   17  A    between atoms: _48  and  _51
REMARK   18  A    between atoms: _51  and  _52
REMARK   19  A    between atoms: _57  and  _59
REMARK   20  A    between atoms: _59  and  _60
REMARK   21  A    between atoms: _63  and  _65
REMARK   22  A    between atoms: _65  and  _66
REMARK   23  A    between atoms: _65  and  _68
REMARK   24  A    between atoms: _68  and  _69
REMARK   25  A    between atoms: _74  and  _76
REMARK   26  A    between atoms: _76  and  _77
REMARK   27  A    between atoms: _76  and  _79
REMARK   28  A    between atoms: _79  and  _80
REMARK   29  A    between atoms: _83  and  _85
REMARK   30  A    between atoms: _85  and  _86
REMARK   31  A    between atoms: _85  and  _88
REMARK   32  A    between atoms: _88  and  _89
REMARK   33  A    between atoms: _89  and  _90
REMARK   34  A    between atoms: _95  and  _97
REMARK   35  A    between atoms: _97  and  _98
REMARK   36  A    between atoms: _97  and  _100
REMARK   37  A    between atoms: _100  and  _101
REMARK   38  A    between atoms: _107  and  _109
REMARK   39  A    between atoms: _118  and  _121
REMARK   40  A    between atoms: _121  and  _122
REMARK   41  A    between atoms: _130  and  _131
REMARK   42  A    between atoms: _139  and  _141
REMARK   43  A    between atoms: _141  and  _142
REMARK   44  A    between atoms: _141  and  _144
REMARK   45  A    between atoms: _144  and  _145
REMARK   46  A    between atoms: _145  and  _146
REMARK   47  A    between atoms: _149  and  _151
REMARK   48  A    between atoms: _151  and  _152
REMARK   49  A    between atoms: _151  and  _154
REMARK   50  A    between atoms: _154  and  _155
REMARK   51  A    between atoms: _160  and  _162
REMARK   52  A    between atoms: _162  and  _163
REMARK   53  A    between atoms: _162  and  _165
REMARK   54  A    between atoms: _165  and  _166
REMARK   55  A    between atoms: _166  and  _167
REMARK   56  A    between atoms: _170  and  _172
REMARK   57  A    between atoms: _172  and  _173
REMARK   58  A    between atoms: _172  and  _175
REMARK   59  A    between atoms: _175  and  _176
REMARK   60  A    between atoms: _179  and  _181
REMARK   61  A    between atoms: _181  and  _182
REMARK   62  A    between atoms: _181  and  _184
REMARK   63  A    between atoms: _184  and  _185
REMARK   64  A    between atoms: _186  and  ZN_394
REMARK   65  A    between atoms: _190  and  _192
REMARK   66  A    between atoms: _192  and  _193
REMARK   67  A    between atoms: _192  and  _195
REMARK   68  A    between atoms: _195  and  _196
REMARK   69  A    between atoms: _199  and  _201
REMARK   70  A    between atoms: _201  and  _202
REMARK   71  A    between atoms: _201  and  _204
REMARK   72  A    between atoms: _207  and  _209
REMARK   73  A    between atoms: _209  and  _210
REMARK   74  A    between atoms: _209  and  _212
REMARK   75  A    between atoms: _212  and  _213
REMARK   76  A    between atoms: _218  and  _220
REMARK   77  A    between atoms: _220  and  _221
REMARK   78  A    between atoms: _220  and  _223
REMARK   79  A    between atoms: _223  and  _224
REMARK   80  A    between atoms: _230  and  _232
REMARK   81  A    between atoms: _232  and  _233
REMARK   82  A    between atoms: _232  and  _235
REMARK   83  A    between atoms: _238  and  _240
REMARK   84  A    between atoms: _240  and  _241
REMARK   85  A    between atoms: _240  and  _243
REMARK   86  A    between atoms: _243  and  _244
REMARK   87  A    between atoms: _247  and  _249
REMARK   88  A    between atoms: _249  and  _250
REMARK   89  A    between atoms: _253  and  _255
REMARK   90  A    between atoms: _255  and  _256
REMARK   91  A    between atoms: _255  and  _258
REMARK   92  A    between atoms: _261  and  _263
REMARK   93  A    between atoms: _263  and  _264
REMARK   94  A    between atoms: _263  and  _266
REMARK   95  A    between atoms: _266  and  _267
REMARK   96  A    between atoms: _270  and  _272
REMARK   97  A    between atoms: _272  and  _273
REMARK   98  A    between atoms: _275  and  _277
REMARK   99  A    between atoms: _277  and  _278
REMARK  100  A    between atoms: _277  and  _280
REMARK  101  A    between atoms: _280  and  _281
REMARK  102  A    between atoms: _283  and  _285
REMARK  103  A    between atoms: _285  and  _286
REMARK  104  A    between atoms: _285  and  _288
REMARK  105  A    between atoms: _288  and  _289
REMARK  106  A    between atoms: _292  and  _294
REMARK  107  A    between atoms: _294  and  _295
REMARK  108  A    between atoms: _294  and  _297
REMARK  109  A    between atoms: _297  and  _298
REMARK  110  A    between atoms: _301  and  _303
REMARK  111  A    between atoms: _303  and  _304
REMARK  112  A    between atoms: _303  and  _306
REMARK  113  A    between atoms: _306  and  _307
REMARK  114  A    between atoms: _311  and  _312
REMARK  115  A    between atoms: _318  and  _319
REMARK  116  A    between atoms: _324  and  _326
REMARK  117  A    between atoms: _326  and  _327
REMARK  118  A    between atoms: _326  and  _329
REMARK  119  A    between atoms: _329  and  _330
REMARK  120  A    between atoms: _333  and  _335
REMARK  121  A    between atoms: _335  and  _336
REMARK  122  A    between atoms: _335  and  _338
REMARK  123  A    between atoms: _338  and  _339
REMARK  124  A    between atoms: _342  and  _344
REMARK  125  A    between atoms: _344  and  _345
REMARK  126  A    between atoms: _344  and  _347
REMARK  127  A    between atoms: _350  and  _352
REMARK  128  A    between atoms: _352  and  _353
REMARK  129  A    between atoms: _352  and  _355
REMARK  130  A    between atoms: _355  and  _356
REMARK  131  A    between atoms: _366  and  _368
REMARK  132  A    between atoms: _368  and  _369
REMARK  133  A    between atoms: _368  and  _371
REMARK  134  A    between atoms: _371  and  _372
REMARK  135  A    between atoms: _377  and  _379
REMARK  136  A    between atoms: _379  and  _380
REMARK  137  A    between atoms: _379  and  _382
REMARK  138  A    between atoms: _382  and  _383
REMARK  139  A    between atoms: _383  and  _384
REMARK  140  A    between atoms: _384  and  _385
REMARK                            x       y       z     vdW  Elec       q    Type
REMARK                         _______ _______ _______ _____ _____    ______ ____
ROOT
ATOM      1  O   HOH     1      16.909   3.912   9.990  0.00  0.00    +0.000 OA
ENDROOT
TORSDOF 0
