REMARK  Name = ../refined-set-2016/1j14/1j14_pocket.pdb
REMARK  120 active torsions:
REMARK  status: ('A' for Active; 'I' for Inactive)
REMARK    1  A    between atoms: _1  and  _5
REMARK    2  A    between atoms: _5  and  _6
REMARK    3  A    between atoms: _5  and  _8
REMARK    4  A    between atoms: _8  and  _9
REMARK    5  A    between atoms: _12  and  _14
REMARK    6  A    between atoms: _14  and  _15
REMARK    7  A    between atoms: _14  and  _17
REMARK    8  A    between atoms: _20  and  _22
REMARK    9  A    between atoms: _22  and  _23
REMARK   10  A    between atoms: _22  and  _25
REMARK   11  A    between atoms: _25  and  _26
REMARK   12  A    between atoms: _31  and  _33
REMARK   13  A    between atoms: _33  and  _34
REMARK   14  A    between atoms: _33  and  _36
REMARK   15  A    between atoms: _36  and  _37
REMARK   16  A    between atoms: _42  and  _43
REMARK   17  A    between atoms: _45  and  _47
REMARK   18  A    between atoms: _47  and  _48
REMARK   19  A    between atoms: _47  and  _50
REMARK   20  A    between atoms: _50  and  _51
REMARK   21  A    between atoms: _54  and  _56
REMARK   22  A    between atoms: _56  and  _57
REMARK   23  A    between atoms: _56  and  _59
REMARK   24  A    between atoms: _59  and  _60
REMARK   25  A    between atoms: _65  and  _67
REMARK   26  A    between atoms: _67  and  _68
REMARK   27  A    between atoms: _67  and  _70
REMARK   28  A    between atoms: _70  and  _71
REMARK   29  A    between atoms: _76  and  _77
REMARK   30  A    between atoms: _79  and  _81
REMARK   31  A    between atoms: _81  and  _82
REMARK   32  A    between atoms: _81  and  _84
REMARK   33  A    between atoms: _87  and  _89
REMARK   34  A    between atoms: _89  and  _90
REMARK   35  A    between atoms: _89  and  _92
REMARK   36  A    between atoms: _92  and  _93
REMARK   37  A    between atoms: _93  and  _94
REMARK   38  A    between atoms: _94  and  _95
REMARK   39  A    between atoms: _95  and  _96
REMARK   40  A    between atoms: _100  and  _102
REMARK   41  A    between atoms: _102  and  _103
REMARK   42  A    between atoms: _102  and  _105
REMARK   43  A    between atoms: _105  and  _106
REMARK   44  A    between atoms: _109  and  _111
REMARK   45  A    between atoms: _111  and  _112
REMARK   46  A    between atoms: _111  and  _114
REMARK   47  A    between atoms: _114  and  _115
REMARK   48  A    between atoms: _117  and  _119
REMARK   49  A    between atoms: _119  and  _120
REMARK   50  A    between atoms: _119  and  _122
REMARK   51  A    between atoms: _122  and  _123
REMARK   52  A    between atoms: _123  and  _239
REMARK   53  A    between atoms: _124  and  _126
REMARK   54  A    between atoms: _126  and  _127
REMARK   55  A    between atoms: _126  and  _129
REMARK   56  A    between atoms: _129  and  _130
REMARK   57  A    between atoms: _130  and  _131
REMARK   58  A    between atoms: _136  and  _138
REMARK   59  A    between atoms: _138  and  _139
REMARK   60  A    between atoms: _141  and  _143
REMARK   61  A    between atoms: _143  and  _144
REMARK   62  A    between atoms: _143  and  _146
REMARK   63  A    between atoms: _146  and  _147
REMARK   64  A    between atoms: _150  and  _152
REMARK   65  A    between atoms: _152  and  _153
REMARK   66  A    between atoms: _152  and  _155
REMARK   67  A    between atoms: _155  and  _156
REMARK   68  A    between atoms: _158  and  _160
REMARK   69  A    between atoms: _160  and  _161
REMARK   70  A    between atoms: _163  and  _165
REMARK   71  A    between atoms: _165  and  _166
REMARK   72  A    between atoms: _168  and  _170
REMARK   73  A    between atoms: _170  and  _171
REMARK   74  A    between atoms: _170  and  _173
REMARK   75  A    between atoms: _173  and  _174
REMARK   76  A    between atoms: _177  and  _179
REMARK   77  A    between atoms: _179  and  _180
REMARK   78  A    between atoms: _179  and  _182
REMARK   79  A    between atoms: _185  and  _187
REMARK   80  A    between atoms: _187  and  _188
REMARK   81  A    between atoms: _187  and  _190
REMARK   82  A    between atoms: _190  and  _191
REMARK   83  A    between atoms: _193  and  _195
REMARK   84  A    between atoms: _195  and  _196
REMARK   85  A    between atoms: _195  and  _198
REMARK   86  A    between atoms: _198  and  _199
REMARK   87  A    between atoms: _209  and  _211
REMARK   88  A    between atoms: _211  and  _212
REMARK   89  A    between atoms: _214  and  _216
REMARK   90  A    between atoms: _216  and  _217
REMARK   91  A    between atoms: _216  and  _219
REMARK   92  A    between atoms: _219  and  _220
REMARK   93  A    between atoms: _225  and  _226
REMARK   94  A    between atoms: _228  and  _230
REMARK   95  A    between atoms: _230  and  _231
REMARK   96  A    between atoms: _233  and  _235
REMARK   97  A    between atoms: _235  and  _236
REMARK   98  A    between atoms: _235  and  _238
REMARK   99  A    between atoms: _238  and  _239
REMARK  100  A    between atoms: _240  and  _242
REMARK  101  A    between atoms: _242  and  _243
REMARK  102  A    between atoms: _246  and  _248
REMARK  103  A    between atoms: _248  and  _249
REMARK  104  A    between atoms: _248  and  _251
REMARK  105  A    between atoms: _251  and  _252
REMARK  106  A    between atoms: _255  and  _257
REMARK  107  A    between atoms: _257  and  _258
REMARK  108  A    between atoms: _257  and  _260
REMARK  109  A    between atoms: _260  and  _261
REMARK  110  A    between atoms: _267  and  _268
REMARK  111  A    between atoms: _273  and  _275
REMARK  112  A    between atoms: _275  and  _276
REMARK  113  A    between atoms: _278  and  _280
REMARK  114  A    between atoms: _280  and  _281
REMARK  115  A    between atoms: _280  and  _283
REMARK  116  A    between atoms: _286  and  _288
REMARK  117  A    between atoms: _288  and  _289
REMARK  118  A    between atoms: _288  and  _291
REMARK  119  A    between atoms: _291  and  _292
REMARK  120  A    between atoms: _297  and  _298
REMARK                            x       y       z     vdW  Elec       q    Type
REMARK                         _______ _______ _______ _____ _____    ______ ____
ROOT
ATOM      1  C   ILE A   1      -0.757  50.812  51.097  0.00  0.00    +0.202 C 
ATOM      2  N   VAL A   2      -0.237  51.952  51.542  0.00  0.00    -0.301 N 
ATOM      3  H   VAL A   2       0.796  52.069  51.531  0.00  0.00    +0.150 HD
ATOM      4  O   ILE A   1      -1.962  50.554  51.144  0.00  0.00    -0.277 OA
ENDROOT
BRANCH   1   5
ATOM      5  CA  ILE A   1       0.228  49.770  50.590  0.00  0.00    +0.013 C 
BRANCH   5   6
ATOM      6  N   ILE A   1       0.052  48.566  51.447  0.00  0.00    +0.387 N 
ATOM      7  H1  ILE A   1       0.251  48.815  52.437  0.00  0.00    -0.089 HD
ATOM      8  H2  ILE A   1      -0.926  48.223  51.364  0.00  0.00    -0.089 HD
ATOM      9  H3  ILE A   1       0.709  47.822  51.136  0.00  0.00    -0.089 HD
ENDBRANCH   5   6
BRANCH   5  10
ATOM     10  CB  ILE A   1      -0.098  49.453  49.107  0.00  0.00    -0.011 C 
ATOM     11  CG2 ILE A   1      -0.012  50.709  48.261  0.00  0.00    -0.002 C 
BRANCH  10  12
ATOM     12  CG1 ILE A   1       0.853  48.382  48.571  0.00  0.00    -0.002 C 
ATOM     13  CD1 ILE A   1       2.288  48.842  48.473  0.00  0.00    -0.000 C 
ENDBRANCH  10  12
ENDBRANCH   5  10
ENDBRANCH   1   5
BRANCH   2  14
ATOM     14  CA  VAL A   2      -1.060  53.043  52.044  0.00  0.00    +0.137 C 
BRANCH  14  15
ATOM     15  CB  VAL A   2      -0.373  53.786  53.219  0.00  0.00    +0.026 C 
ATOM     16  CG2 VAL A   2       0.101  52.800  54.280  0.00  0.00    +0.002 C 
ATOM     17  CG1 VAL A   2      -1.321  54.819  53.815  0.00  0.00    +0.002 C 
ENDBRANCH  14  15
BRANCH  14  18
ATOM     18  C   VAL A   2      -1.246  54.036  50.900  0.00  0.00    +0.227 C 
ATOM     19  O   VAL A   2      -0.284  54.391  50.215  0.00  0.00    -0.286 OA
ENDBRANCH  14  18
ENDBRANCH   2  14
TORSDOF 7
REMARK  Name = ../refined-set-2016/1j14/1j14_pocket.pdb
REMARK  120 active torsions:
REMARK  status: ('A' for Active; 'I' for Inactive)
REMARK    1  A    between atoms: _1  and  _5
REMARK    2  A    between atoms: _5  and  _6
REMARK    3  A    between atoms: _5  and  _8
REMARK    4  A    between atoms: _8  and  _9
REMARK    5  A    between atoms: _12  and  _14
REMARK    6  A    between atoms: _14  and  _15
REMARK    7  A    between atoms: _14  and  _17
REMARK    8  A    between atoms: _20  and  _22
REMARK    9  A    between atoms: _22  and  _23
REMARK   10  A    between atoms: _22  and  _25
REMARK   11  A    between atoms: _25  and  _26
REMARK   12  A    between atoms: _31  and  _33
REMARK   13  A    between atoms: _33  and  _34
REMARK   14  A    between atoms: _33  and  _36
REMARK   15  A    between atoms: _36  and  _37
REMARK   16  A    between atoms: _42  and  _43
REMARK   17  A    between atoms: _45  and  _47
REMARK   18  A    between atoms: _47  and  _48
REMARK   19  A    between atoms: _47  and  _50
REMARK   20  A    between atoms: _50  and  _51
REMARK   21  A    between atoms: _54  and  _56
REMARK   22  A    between atoms: _56  and  _57
REMARK   23  A    between atoms: _56  and  _59
REMARK   24  A    between atoms: _59  and  _60
REMARK   25  A    between atoms: _65  and  _67
REMARK   26  A    between atoms: _67  and  _68
REMARK   27  A    between atoms: _67  and  _70
REMARK   28  A    between atoms: _70  and  _71
REMARK   29  A    between atoms: _76  and  _77
REMARK   30  A    between atoms: _79  and  _81
REMARK   31  A    between atoms: _81  and  _82
REMARK   32  A    between atoms: _81  and  _84
REMARK   33  A    between atoms: _87  and  _89
REMARK   34  A    between atoms: _89  and  _90
REMARK   35  A    between atoms: _89  and  _92
REMARK   36  A    between atoms: _92  and  _93
REMARK   37  A    between atoms: _93  and  _94
REMARK   38  A    between atoms: _94  and  _95
REMARK   39  A    between atoms: _95  and  _96
REMARK   40  A    between atoms: _100  and  _102
REMARK   41  A    between atoms: _102  and  _103
REMARK   42  A    between atoms: _102  and  _105
REMARK   43  A    between atoms: _105  and  _106
REMARK   44  A    between atoms: _109  and  _111
REMARK   45  A    between atoms: _111  and  _112
REMARK   46  A    between atoms: _111  and  _114
REMARK   47  A    between atoms: _114  and  _115
REMARK   48  A    between atoms: _117  and  _119
REMARK   49  A    between atoms: _119  and  _120
REMARK   50  A    between atoms: _119  and  _122
REMARK   51  A    between atoms: _122  and  _123
REMARK   52  A    between atoms: _123  and  _239
REMARK   53  A    between atoms: _124  and  _126
REMARK   54  A    between atoms: _126  and  _127
REMARK   55  A    between atoms: _126  and  _129
REMARK   56  A    between atoms: _129  and  _130
REMARK   57  A    between atoms: _130  and  _131
REMARK   58  A    between atoms: _136  and  _138
REMARK   59  A    between atoms: _138  and  _139
REMARK   60  A    between atoms: _141  and  _143
REMARK   61  A    between atoms: _143  and  _144
REMARK   62  A    between atoms: _143  and  _146
REMARK   63  A    between atoms: _146  and  _147
REMARK   64  A    between atoms: _150  and  _152
REMARK   65  A    between atoms: _152  and  _153
REMARK   66  A    between atoms: _152  and  _155
REMARK   67  A    between atoms: _155  and  _156
REMARK   68  A    between atoms: _158  and  _160
REMARK   69  A    between atoms: _160  and  _161
REMARK   70  A    between atoms: _163  and  _165
REMARK   71  A    between atoms: _165  and  _166
REMARK   72  A    between atoms: _168  and  _170
REMARK   73  A    between atoms: _170  and  _171
REMARK   74  A    between atoms: _170  and  _173
REMARK   75  A    between atoms: _173  and  _174
REMARK   76  A    between atoms: _177  and  _179
REMARK   77  A    between atoms: _179  and  _180
REMARK   78  A    between atoms: _179  and  _182
REMARK   79  A    between atoms: _185  and  _187
REMARK   80  A    between atoms: _187  and  _188
REMARK   81  A    between atoms: _187  and  _190
REMARK   82  A    between atoms: _190  and  _191
REMARK   83  A    between atoms: _193  and  _195
REMARK   84  A    between atoms: _195  and  _196
REMARK   85  A    between atoms: _195  and  _198
REMARK   86  A    between atoms: _198  and  _199
REMARK   87  A    between atoms: _209  and  _211
REMARK   88  A    between atoms: _211  and  _212
REMARK   89  A    between atoms: _214  and  _216
REMARK   90  A    between atoms: _216  and  _217
REMARK   91  A    between atoms: _216  and  _219
REMARK   92  A    between atoms: _219  and  _220
REMARK   93  A    between atoms: _225  and  _226
REMARK   94  A    between atoms: _228  and  _230
REMARK   95  A    between atoms: _230  and  _231
REMARK   96  A    between atoms: _233  and  _235
REMARK   97  A    between atoms: _235  and  _236
REMARK   98  A    between atoms: _235  and  _238
REMARK   99  A    between atoms: _238  and  _239
REMARK  100  A    between atoms: _240  and  _242
REMARK  101  A    between atoms: _242  and  _243
REMARK  102  A    between atoms: _246  and  _248
REMARK  103  A    between atoms: _248  and  _249
REMARK  104  A    between atoms: _248  and  _251
REMARK  105  A    between atoms: _251  and  _252
REMARK  106  A    between atoms: _255  and  _257
REMARK  107  A    between atoms: _257  and  _258
REMARK  108  A    between atoms: _257  and  _260
REMARK  109  A    between atoms: _260  and  _261
REMARK  110  A    between atoms: _267  and  _268
REMARK  111  A    between atoms: _273  and  _275
REMARK  112  A    between atoms: _275  and  _276
REMARK  113  A    between atoms: _278  and  _280
REMARK  114  A    between atoms: _280  and  _281
REMARK  115  A    between atoms: _280  and  _283
REMARK  116  A    between atoms: _286  and  _288
REMARK  117  A    between atoms: _288  and  _289
REMARK  118  A    between atoms: _288  and  _291
REMARK  119  A    between atoms: _291  and  _292
REMARK  120  A    between atoms: _297  and  _298
REMARK                            x       y       z     vdW  Elec       q    Type
REMARK                         _______ _______ _______ _____ _____    ______ ____
ROOT
ATOM      1  CB  HIS A   1      13.635  41.278  57.678  0.00  0.00    +0.072 C 
ENDROOT
BRANCH   1   2
ATOM      2  CG  HIS A   1      12.421  41.992  57.162  0.00  0.00    +0.082 A 
ATOM      3  CD2 HIS A   1      11.157  42.046  57.637  0.00  0.00    +0.115 A 
ATOM      4  NE2 HIS A   1      10.472  42.952  56.868  0.00  0.00    -0.221 NA
ATOM      5  CE1 HIS A   1      11.283  43.432  55.945  0.00  0.00    +0.199 A 
ATOM      6  ND1 HIS A   1      12.465  42.868  56.096  0.00  0.00    -0.227 NA
ENDBRANCH   1   2
BRANCH   1   7
ATOM      7  CA  HIS A   1      13.773  39.810  57.226  0.00  0.00    +0.139 C 
BRANCH   7   8
ATOM      8  N   HIS A   1      14.554  39.702  56.001  0.00  0.00    -0.239 NA
ATOM      9  H   HIS A   1      14.665  40.526  55.376  0.00  0.00    +0.142 HD
ENDBRANCH   7   8
BRANCH   7  10
ATOM     10  C   HIS A   1      12.440  39.062  57.185  0.00  0.00    +0.224 C 
ATOM     11  O   HIS A   1      11.717  39.040  58.172  0.00  0.00    -0.287 OA
ENDBRANCH   7  10
ENDBRANCH   1   7
TORSDOF 4
REMARK  Name = ../refined-set-2016/1j14/1j14_pocket.pdb
REMARK  120 active torsions:
REMARK  status: ('A' for Active; 'I' for Inactive)
REMARK    1  A    between atoms: _1  and  _5
REMARK    2  A    between atoms: _5  and  _6
REMARK    3  A    between atoms: _5  and  _8
REMARK    4  A    between atoms: _8  and  _9
REMARK    5  A    between atoms: _12  and  _14
REMARK    6  A    between atoms: _14  and  _15
REMARK    7  A    between atoms: _14  and  _17
REMARK    8  A    between atoms: _20  and  _22
REMARK    9  A    between atoms: _22  and  _23
REMARK   10  A    between atoms: _22  and  _25
REMARK   11  A    between atoms: _25  and  _26
REMARK   12  A    between atoms: _31  and  _33
REMARK   13  A    between atoms: _33  and  _34
REMARK   14  A    between atoms: _33  and  _36
REMARK   15  A    between atoms: _36  and  _37
REMARK   16  A    between atoms: _42  and  _43
REMARK   17  A    between atoms: _45  and  _47
REMARK   18  A    between atoms: _47  and  _48
REMARK   19  A    between atoms: _47  and  _50
REMARK   20  A    between atoms: _50  and  _51
REMARK   21  A    between atoms: _54  and  _56
REMARK   22  A    between atoms: _56  and  _57
REMARK   23  A    between atoms: _56  and  _59
REMARK   24  A    between atoms: _59  and  _60
REMARK   25  A    between atoms: _65  and  _67
REMARK   26  A    between atoms: _67  and  _68
REMARK   27  A    between atoms: _67  and  _70
REMARK   28  A    between atoms: _70  and  _71
REMARK   29  A    between atoms: _76  and  _77
REMARK   30  A    between atoms: _79  and  _81
REMARK   31  A    between atoms: _81  and  _82
REMARK   32  A    between atoms: _81  and  _84
REMARK   33  A    between atoms: _87  and  _89
REMARK   34  A    between atoms: _89  and  _90
REMARK   35  A    between atoms: _89  and  _92
REMARK   36  A    between atoms: _92  and  _93
REMARK   37  A    between atoms: _93  and  _94
REMARK   38  A    between atoms: _94  and  _95
REMARK   39  A    between atoms: _95  and  _96
REMARK   40  A    between atoms: _100  and  _102
REMARK   41  A    between atoms: _102  and  _103
REMARK   42  A    between atoms: _102  and  _105
REMARK   43  A    between atoms: _105  and  _106
REMARK   44  A    between atoms: _109  and  _111
REMARK   45  A    between atoms: _111  and  _112
REMARK   46  A    between atoms: _111  and  _114
REMARK   47  A    between atoms: _114  and  _115
REMARK   48  A    between atoms: _117  and  _119
REMARK   49  A    between atoms: _119  and  _120
REMARK   50  A    between atoms: _119  and  _122
REMARK   51  A    between atoms: _122  and  _123
REMARK   52  A    between atoms: _123  and  _239
REMARK   53  A    between atoms: _124  and  _126
REMARK   54  A    between atoms: _126  and  _127
REMARK   55  A    between atoms: _126  and  _129
REMARK   56  A    between atoms: _129  and  _130
REMARK   57  A    between atoms: _130  and  _131
REMARK   58  A    between atoms: _136  and  _138
REMARK   59  A    between atoms: _138  and  _139
REMARK   60  A    between atoms: _141  and  _143
REMARK   61  A    between atoms: _143  and  _144
REMARK   62  A    between atoms: _143  and  _146
REMARK   63  A    between atoms: _146  and  _147
REMARK   64  A    between atoms: _150  and  _152
REMARK   65  A    between atoms: _152  and  _153
REMARK   66  A    between atoms: _152  and  _155
REMARK   67  A    between atoms: _155  and  _156
REMARK   68  A    between atoms: _158  and  _160
REMARK   69  A    between atoms: _160  and  _161
REMARK   70  A    between atoms: _163  and  _165
REMARK   71  A    between atoms: _165  and  _166
REMARK   72  A    between atoms: _168  and  _170
REMARK   73  A    between atoms: _170  and  _171
REMARK   74  A    between atoms: _170  and  _173
REMARK   75  A    between atoms: _173  and  _174
REMARK   76  A    between atoms: _177  and  _179
REMARK   77  A    between atoms: _179  and  _180
REMARK   78  A    between atoms: _179  and  _182
REMARK   79  A    between atoms: _185  and  _187
REMARK   80  A    between atoms: _187  and  _188
REMARK   81  A    between atoms: _187  and  _190
REMARK   82  A    between atoms: _190  and  _191
REMARK   83  A    between atoms: _193  and  _195
REMARK   84  A    between atoms: _195  and  _196
REMARK   85  A    between atoms: _195  and  _198
REMARK   86  A    between atoms: _198  and  _199
REMARK   87  A    between atoms: _209  and  _211
REMARK   88  A    between atoms: _211  and  _212
REMARK   89  A    between atoms: _214  and  _216
REMARK   90  A    between atoms: _216  and  _217
REMARK   91  A    between atoms: _216  and  _219
REMARK   92  A    between atoms: _219  and  _220
REMARK   93  A    between atoms: _225  and  _226
REMARK   94  A    between atoms: _228  and  _230
REMARK   95  A    between atoms: _230  and  _231
REMARK   96  A    between atoms: _233  and  _235
REMARK   97  A    between atoms: _235  and  _236
REMARK   98  A    between atoms: _235  and  _238
REMARK   99  A    between atoms: _238  and  _239
REMARK  100  A    between atoms: _240  and  _242
REMARK  101  A    between atoms: _242  and  _243
REMARK  102  A    between atoms: _246  and  _248
REMARK  103  A    between atoms: _248  and  _249
REMARK  104  A    between atoms: _248  and  _251
REMARK  105  A    between atoms: _251  and  _252
REMARK  106  A    between atoms: _255  and  _257
REMARK  107  A    between atoms: _257  and  _258
REMARK  108  A    between atoms: _257  and  _260
REMARK  109  A    between atoms: _260  and  _261
REMARK  110  A    between atoms: _267  and  _268
REMARK  111  A    between atoms: _273  and  _275
REMARK  112  A    between atoms: _275  and  _276
REMARK  113  A    between atoms: _278  and  _280
REMARK  114  A    between atoms: _280  and  _281
REMARK  115  A    between atoms: _280  and  _283
REMARK  116  A    between atoms: _286  and  _288
REMARK  117  A    between atoms: _288  and  _289
REMARK  118  A    between atoms: _288  and  _291
REMARK  119  A    between atoms: _291  and  _292
REMARK  120  A    between atoms: _297  and  _298
REMARK                            x       y       z     vdW  Elec       q    Type
REMARK                         _______ _______ _______ _____ _____    ______ ____
ROOT
ATOM      1  CG  TYR A   1      16.138  45.824  58.221  0.00  0.00    -0.020 A 
ATOM      2  CD2 TYR A   1      16.458  45.089  59.363  0.00  0.00    -0.001 A 
ATOM      3  CE2 TYR A   1      15.482  44.421  60.088  0.00  0.00    +0.036 A 
ATOM      4  CZ  TYR A   1      14.161  44.484  59.680  0.00  0.00    +0.134 A 
ATOM      5  CE1 TYR A   1      13.812  45.207  58.546  0.00  0.00    +0.036 A 
ATOM      6  CD1 TYR A   1      14.802  45.873  57.824  0.00  0.00    -0.001 A 
ENDROOT
BRANCH   4   7
ATOM      7  OH  TYR A   1      13.203  43.816  60.408  0.00  0.00    -0.506 OA
ATOM      8  HH  TYR A   1      13.632  43.360  61.175  0.00  0.00    +0.292 HD
ENDBRANCH   4   7
BRANCH   1   9
ATOM      9  CB  TYR A   1      17.215  46.541  57.437  0.00  0.00    +0.051 C 
BRANCH   9  10
ATOM     10  CA  TYR A   1      18.575  45.850  57.544  0.00  0.00    +0.137 C 
BRANCH  10  11
ATOM     11  N   TYR A   1      19.329  46.302  58.706  0.00  0.00    -0.239 NA
ATOM     12  H   TYR A   1      19.628  45.591  59.404  0.00  0.00    +0.142 HD
ENDBRANCH  10  11
BRANCH  10  13
ATOM     13  C   TYR A   1      19.392  45.986  56.266  0.00  0.00    +0.224 C 
ATOM     14  O   TYR A   1      18.855  46.050  55.158  0.00  0.00    -0.287 OA
ENDBRANCH  10  13
ENDBRANCH   9  10
ENDBRANCH   1   9
TORSDOF 5
REMARK  Name = ../refined-set-2016/1j14/1j14_pocket.pdb
REMARK  120 active torsions:
REMARK  status: ('A' for Active; 'I' for Inactive)
REMARK    1  A    between atoms: _1  and  _5
REMARK    2  A    between atoms: _5  and  _6
REMARK    3  A    between atoms: _5  and  _8
REMARK    4  A    between atoms: _8  and  _9
REMARK    5  A    between atoms: _12  and  _14
REMARK    6  A    between atoms: _14  and  _15
REMARK    7  A    between atoms: _14  and  _17
REMARK    8  A    between atoms: _20  and  _22
REMARK    9  A    between atoms: _22  and  _23
REMARK   10  A    between atoms: _22  and  _25
REMARK   11  A    between atoms: _25  and  _26
REMARK   12  A    between atoms: _31  and  _33
REMARK   13  A    between atoms: _33  and  _34
REMARK   14  A    between atoms: _33  and  _36
REMARK   15  A    between atoms: _36  and  _37
REMARK   16  A    between atoms: _42  and  _43
REMARK   17  A    between atoms: _45  and  _47
REMARK   18  A    between atoms: _47  and  _48
REMARK   19  A    between atoms: _47  and  _50
REMARK   20  A    between atoms: _50  and  _51
REMARK   21  A    between atoms: _54  and  _56
REMARK   22  A    between atoms: _56  and  _57
REMARK   23  A    between atoms: _56  and  _59
REMARK   24  A    between atoms: _59  and  _60
REMARK   25  A    between atoms: _65  and  _67
REMARK   26  A    between atoms: _67  and  _68
REMARK   27  A    between atoms: _67  and  _70
REMARK   28  A    between atoms: _70  and  _71
REMARK   29  A    between atoms: _76  and  _77
REMARK   30  A    between atoms: _79  and  _81
REMARK   31  A    between atoms: _81  and  _82
REMARK   32  A    between atoms: _81  and  _84
REMARK   33  A    between atoms: _87  and  _89
REMARK   34  A    between atoms: _89  and  _90
REMARK   35  A    between atoms: _89  and  _92
REMARK   36  A    between atoms: _92  and  _93
REMARK   37  A    between atoms: _93  and  _94
REMARK   38  A    between atoms: _94  and  _95
REMARK   39  A    between atoms: _95  and  _96
REMARK   40  A    between atoms: _100  and  _102
REMARK   41  A    between atoms: _102  and  _103
REMARK   42  A    between atoms: _102  and  _105
REMARK   43  A    between atoms: _105  and  _106
REMARK   44  A    between atoms: _109  and  _111
REMARK   45  A    between atoms: _111  and  _112
REMARK   46  A    between atoms: _111  and  _114
REMARK   47  A    between atoms: _114  and  _115
REMARK   48  A    between atoms: _117  and  _119
REMARK   49  A    between atoms: _119  and  _120
REMARK   50  A    between atoms: _119  and  _122
REMARK   51  A    between atoms: _122  and  _123
REMARK   52  A    between atoms: _123  and  _239
REMARK   53  A    between atoms: _124  and  _126
REMARK   54  A    between atoms: _126  and  _127
REMARK   55  A    between atoms: _126  and  _129
REMARK   56  A    between atoms: _129  and  _130
REMARK   57  A    between atoms: _130  and  _131
REMARK   58  A    between atoms: _136  and  _138
REMARK   59  A    between atoms: _138  and  _139
REMARK   60  A    between atoms: _141  and  _143
REMARK   61  A    between atoms: _143  and  _144
REMARK   62  A    between atoms: _143  and  _146
REMARK   63  A    between atoms: _146  and  _147
REMARK   64  A    between atoms: _150  and  _152
REMARK   65  A    between atoms: _152  and  _153
REMARK   66  A    between atoms: _152  and  _155
REMARK   67  A    between atoms: _155  and  _156
REMARK   68  A    between atoms: _158  and  _160
REMARK   69  A    between atoms: _160  and  _161
REMARK   70  A    between atoms: _163  and  _165
REMARK   71  A    between atoms: _165  and  _166
REMARK   72  A    between atoms: _168  and  _170
REMARK   73  A    between atoms: _170  and  _171
REMARK   74  A    between atoms: _170  and  _173
REMARK   75  A    between atoms: _173  and  _174
REMARK   76  A    between atoms: _177  and  _179
REMARK   77  A    between atoms: _179  and  _180
REMARK   78  A    between atoms: _179  and  _182
REMARK   79  A    between atoms: _185  and  _187
REMARK   80  A    between atoms: _187  and  _188
REMARK   81  A    between atoms: _187  and  _190
REMARK   82  A    between atoms: _190  and  _191
REMARK   83  A    between atoms: _193  and  _195
REMARK   84  A    between atoms: _195  and  _196
REMARK   85  A    between atoms: _195  and  _198
REMARK   86  A    between atoms: _198  and  _199
REMARK   87  A    between atoms: _209  and  _211
REMARK   88  A    between atoms: _211  and  _212
REMARK   89  A    between atoms: _214  and  _216
REMARK   90  A    between atoms: _216  and  _217
REMARK   91  A    between atoms: _216  and  _219
REMARK   92  A    between atoms: _219  and  _220
REMARK   93  A    between atoms: _225  and  _226
REMARK   94  A    between atoms: _228  and  _230
REMARK   95  A    between atoms: _230  and  _231
REMARK   96  A    between atoms: _233  and  _235
REMARK   97  A    between atoms: _235  and  _236
REMARK   98  A    between atoms: _235  and  _238
REMARK   99  A    between atoms: _238  and  _239
REMARK  100  A    between atoms: _240  and  _242
REMARK  101  A    between atoms: _242  and  _243
REMARK  102  A    between atoms: _246  and  _248
REMARK  103  A    between atoms: _248  and  _249
REMARK  104  A    between atoms: _248  and  _251
REMARK  105  A    between atoms: _251  and  _252
REMARK  106  A    between atoms: _255  and  _257
REMARK  107  A    between atoms: _257  and  _258
REMARK  108  A    between atoms: _257  and  _260
REMARK  109  A    between atoms: _260  and  _261
REMARK  110  A    between atoms: _267  and  _268
REMARK  111  A    between atoms: _273  and  _275
REMARK  112  A    between atoms: _275  and  _276
REMARK  113  A    between atoms: _278  and  _280
REMARK  114  A    between atoms: _280  and  _281
REMARK  115  A    between atoms: _280  and  _283
REMARK  116  A    between atoms: _286  and  _288
REMARK  117  A    between atoms: _288  and  _289
REMARK  118  A    between atoms: _288  and  _291
REMARK  119  A    between atoms: _291  and  _292
REMARK  120  A    between atoms: _297  and  _298
REMARK                            x       y       z     vdW  Elec       q    Type
REMARK                         _______ _______ _______ _____ _____    ______ ____
ROOT
ATOM      1  CA  ILE A   1       5.086  48.952  44.155  0.00  0.00    +0.133 C 
ENDROOT
BRANCH   1   2
ATOM      2  N   ILE A   1       4.954  49.699  42.912  0.00  0.00    -0.239 NA
ATOM      3  H   ILE A   1       4.272  50.483  42.873  0.00  0.00    +0.142 HD
ENDBRANCH   1   2
BRANCH   1   4
ATOM      4  CB  ILE A   1       5.390  49.888  45.337  0.00  0.00    +0.023 C 
ATOM      5  CG2 ILE A   1       5.739  49.070  46.584  0.00  0.00    +0.002 C 
BRANCH   4   6
ATOM      6  CG1 ILE A   1       6.541  50.826  44.960  0.00  0.00    +0.002 C 
ATOM      7  CD1 ILE A   1       6.876  51.826  46.005  0.00  0.00    +0.000 C 
ENDBRANCH   4   6
ENDBRANCH   1   4
BRANCH   1   8
ATOM      8  C   ILE A   1       3.744  48.266  44.379  0.00  0.00    +0.224 C 
ATOM      9  O   ILE A   1       2.693  48.853  44.118  0.00  0.00    -0.287 OA
ENDBRANCH   1   8
TORSDOF 4
REMARK  Name = ../refined-set-2016/1j14/1j14_pocket.pdb
REMARK  120 active torsions:
REMARK  status: ('A' for Active; 'I' for Inactive)
REMARK    1  A    between atoms: _1  and  _5
REMARK    2  A    between atoms: _5  and  _6
REMARK    3  A    between atoms: _5  and  _8
REMARK    4  A    between atoms: _8  and  _9
REMARK    5  A    between atoms: _12  and  _14
REMARK    6  A    between atoms: _14  and  _15
REMARK    7  A    between atoms: _14  and  _17
REMARK    8  A    between atoms: _20  and  _22
REMARK    9  A    between atoms: _22  and  _23
REMARK   10  A    between atoms: _22  and  _25
REMARK   11  A    between atoms: _25  and  _26
REMARK   12  A    between atoms: _31  and  _33
REMARK   13  A    between atoms: _33  and  _34
REMARK   14  A    between atoms: _33  and  _36
REMARK   15  A    between atoms: _36  and  _37
REMARK   16  A    between atoms: _42  and  _43
REMARK   17  A    between atoms: _45  and  _47
REMARK   18  A    between atoms: _47  and  _48
REMARK   19  A    between atoms: _47  and  _50
REMARK   20  A    between atoms: _50  and  _51
REMARK   21  A    between atoms: _54  and  _56
REMARK   22  A    between atoms: _56  and  _57
REMARK   23  A    between atoms: _56  and  _59
REMARK   24  A    between atoms: _59  and  _60
REMARK   25  A    between atoms: _65  and  _67
REMARK   26  A    between atoms: _67  and  _68
REMARK   27  A    between atoms: _67  and  _70
REMARK   28  A    between atoms: _70  and  _71
REMARK   29  A    between atoms: _76  and  _77
REMARK   30  A    between atoms: _79  and  _81
REMARK   31  A    between atoms: _81  and  _82
REMARK   32  A    between atoms: _81  and  _84
REMARK   33  A    between atoms: _87  and  _89
REMARK   34  A    between atoms: _89  and  _90
REMARK   35  A    between atoms: _89  and  _92
REMARK   36  A    between atoms: _92  and  _93
REMARK   37  A    between atoms: _93  and  _94
REMARK   38  A    between atoms: _94  and  _95
REMARK   39  A    between atoms: _95  and  _96
REMARK   40  A    between atoms: _100  and  _102
REMARK   41  A    between atoms: _102  and  _103
REMARK   42  A    between atoms: _102  and  _105
REMARK   43  A    between atoms: _105  and  _106
REMARK   44  A    between atoms: _109  and  _111
REMARK   45  A    between atoms: _111  and  _112
REMARK   46  A    between atoms: _111  and  _114
REMARK   47  A    between atoms: _114  and  _115
REMARK   48  A    between atoms: _117  and  _119
REMARK   49  A    between atoms: _119  and  _120
REMARK   50  A    between atoms: _119  and  _122
REMARK   51  A    between atoms: _122  and  _123
REMARK   52  A    between atoms: _123  and  _239
REMARK   53  A    between atoms: _124  and  _126
REMARK   54  A    between atoms: _126  and  _127
REMARK   55  A    between atoms: _126  and  _129
REMARK   56  A    between atoms: _129  and  _130
REMARK   57  A    between atoms: _130  and  _131
REMARK   58  A    between atoms: _136  and  _138
REMARK   59  A    between atoms: _138  and  _139
REMARK   60  A    between atoms: _141  and  _143
REMARK   61  A    between atoms: _143  and  _144
REMARK   62  A    between atoms: _143  and  _146
REMARK   63  A    between atoms: _146  and  _147
REMARK   64  A    between atoms: _150  and  _152
REMARK   65  A    between atoms: _152  and  _153
REMARK   66  A    between atoms: _152  and  _155
REMARK   67  A    between atoms: _155  and  _156
REMARK   68  A    between atoms: _158  and  _160
REMARK   69  A    between atoms: _160  and  _161
REMARK   70  A    between atoms: _163  and  _165
REMARK   71  A    between atoms: _165  and  _166
REMARK   72  A    between atoms: _168  and  _170
REMARK   73  A    between atoms: _170  and  _171
REMARK   74  A    between atoms: _170  and  _173
REMARK   75  A    between atoms: _173  and  _174
REMARK   76  A    between atoms: _177  and  _179
REMARK   77  A    between atoms: _179  and  _180
REMARK   78  A    between atoms: _179  and  _182
REMARK   79  A    between atoms: _185  and  _187
REMARK   80  A    between atoms: _187  and  _188
REMARK   81  A    between atoms: _187  and  _190
REMARK   82  A    between atoms: _190  and  _191
REMARK   83  A    between atoms: _193  and  _195
REMARK   84  A    between atoms: _195  and  _196
REMARK   85  A    between atoms: _195  and  _198
REMARK   86  A    between atoms: _198  and  _199
REMARK   87  A    between atoms: _209  and  _211
REMARK   88  A    between atoms: _211  and  _212
REMARK   89  A    between atoms: _214  and  _216
REMARK   90  A    between atoms: _216  and  _217
REMARK   91  A    between atoms: _216  and  _219
REMARK   92  A    between atoms: _219  and  _220
REMARK   93  A    between atoms: _225  and  _226
REMARK   94  A    between atoms: _228  and  _230
REMARK   95  A    between atoms: _230  and  _231
REMARK   96  A    between atoms: _233  and  _235
REMARK   97  A    between atoms: _235  and  _236
REMARK   98  A    between atoms: _235  and  _238
REMARK   99  A    between atoms: _238  and  _239
REMARK  100  A    between atoms: _240  and  _242
REMARK  101  A    between atoms: _242  and  _243
REMARK  102  A    between atoms: _246  and  _248
REMARK  103  A    between atoms: _248  and  _249
REMARK  104  A    between atoms: _248  and  _251
REMARK  105  A    between atoms: _251  and  _252
REMARK  106  A    between atoms: _255  and  _257
REMARK  107  A    between atoms: _257  and  _258
REMARK  108  A    between atoms: _257  and  _260
REMARK  109  A    between atoms: _260  and  _261
REMARK  110  A    between atoms: _267  and  _268
REMARK  111  A    between atoms: _273  and  _275
REMARK  112  A    between atoms: _275  and  _276
REMARK  113  A    between atoms: _278  and  _280
REMARK  114  A    between atoms: _280  and  _281
REMARK  115  A    between atoms: _280  and  _283
REMARK  116  A    between atoms: _286  and  _288
REMARK  117  A    between atoms: _288  and  _289
REMARK  118  A    between atoms: _288  and  _291
REMARK  119  A    between atoms: _291  and  _292
REMARK  120  A    between atoms: _297  and  _298
REMARK                            x       y       z     vdW  Elec       q    Type
REMARK                         _______ _______ _______ _____ _____    ______ ____
ROOT
ATOM      1  CB  ASN A   1      -0.355  47.743  57.049  0.00  0.00    +0.110 C 
ENDROOT
BRANCH   1   2
ATOM      2  CG  ASN A   1      -1.188  48.594  57.979  0.00  0.00    +0.221 C 
ATOM      3  ND2 ASN A   1      -0.539  49.176  58.980  0.00  0.00    -0.329 N 
ATOM      4 HD21 ASN A   1      -1.056  49.771  59.659  0.00  0.00    +0.145 HD
ATOM      5 HD22 ASN A   1       0.486  49.037  59.085  0.00  0.00    +0.145 HD
ATOM      6  OD1 ASN A   1      -2.403  48.725  57.808  0.00  0.00    -0.275 OA
ENDBRANCH   1   2
BRANCH   1   7
ATOM      7  CA  ASN A   1      -1.123  47.290  55.799  0.00  0.00    +0.142 C 
BRANCH   7   8
ATOM      8  N   ASN A   1      -0.314  46.308  55.087  0.00  0.00    -0.239 NA
ATOM      9  H   ASN A   1       0.545  45.954  55.555  0.00  0.00    +0.142 HD
ENDBRANCH   7   8
BRANCH   7  10
ATOM     10  C   ASN A   1      -1.464  48.487  54.908  0.00  0.00    +0.225 C 
ATOM     11  O   ASN A   1      -0.605  48.993  54.175  0.00  0.00    -0.287 OA
ENDBRANCH   7  10
ENDBRANCH   1   7
TORSDOF 4
REMARK  Name = ../refined-set-2016/1j14/1j14_pocket.pdb
REMARK  120 active torsions:
REMARK  status: ('A' for Active; 'I' for Inactive)
REMARK    1  A    between atoms: _1  and  _5
REMARK    2  A    between atoms: _5  and  _6
REMARK    3  A    between atoms: _5  and  _8
REMARK    4  A    between atoms: _8  and  _9
REMARK    5  A    between atoms: _12  and  _14
REMARK    6  A    between atoms: _14  and  _15
REMARK    7  A    between atoms: _14  and  _17
REMARK    8  A    between atoms: _20  and  _22
REMARK    9  A    between atoms: _22  and  _23
REMARK   10  A    between atoms: _22  and  _25
REMARK   11  A    between atoms: _25  and  _26
REMARK   12  A    between atoms: _31  and  _33
REMARK   13  A    between atoms: _33  and  _34
REMARK   14  A    between atoms: _33  and  _36
REMARK   15  A    between atoms: _36  and  _37
REMARK   16  A    between atoms: _42  and  _43
REMARK   17  A    between atoms: _45  and  _47
REMARK   18  A    between atoms: _47  and  _48
REMARK   19  A    between atoms: _47  and  _50
REMARK   20  A    between atoms: _50  and  _51
REMARK   21  A    between atoms: _54  and  _56
REMARK   22  A    between atoms: _56  and  _57
REMARK   23  A    between atoms: _56  and  _59
REMARK   24  A    between atoms: _59  and  _60
REMARK   25  A    between atoms: _65  and  _67
REMARK   26  A    between atoms: _67  and  _68
REMARK   27  A    between atoms: _67  and  _70
REMARK   28  A    between atoms: _70  and  _71
REMARK   29  A    between atoms: _76  and  _77
REMARK   30  A    between atoms: _79  and  _81
REMARK   31  A    between atoms: _81  and  _82
REMARK   32  A    between atoms: _81  and  _84
REMARK   33  A    between atoms: _87  and  _89
REMARK   34  A    between atoms: _89  and  _90
REMARK   35  A    between atoms: _89  and  _92
REMARK   36  A    between atoms: _92  and  _93
REMARK   37  A    between atoms: _93  and  _94
REMARK   38  A    between atoms: _94  and  _95
REMARK   39  A    between atoms: _95  and  _96
REMARK   40  A    between atoms: _100  and  _102
REMARK   41  A    between atoms: _102  and  _103
REMARK   42  A    between atoms: _102  and  _105
REMARK   43  A    between atoms: _105  and  _106
REMARK   44  A    between atoms: _109  and  _111
REMARK   45  A    between atoms: _111  and  _112
REMARK   46  A    between atoms: _111  and  _114
REMARK   47  A    between atoms: _114  and  _115
REMARK   48  A    between atoms: _117  and  _119
REMARK   49  A    between atoms: _119  and  _120
REMARK   50  A    between atoms: _119  and  _122
REMARK   51  A    between atoms: _122  and  _123
REMARK   52  A    between atoms: _123  and  _239
REMARK   53  A    between atoms: _124  and  _126
REMARK   54  A    between atoms: _126  and  _127
REMARK   55  A    between atoms: _126  and  _129
REMARK   56  A    between atoms: _129  and  _130
REMARK   57  A    between atoms: _130  and  _131
REMARK   58  A    between atoms: _136  and  _138
REMARK   59  A    between atoms: _138  and  _139
REMARK   60  A    between atoms: _141  and  _143
REMARK   61  A    between atoms: _143  and  _144
REMARK   62  A    between atoms: _143  and  _146
REMARK   63  A    between atoms: _146  and  _147
REMARK   64  A    between atoms: _150  and  _152
REMARK   65  A    between atoms: _152  and  _153
REMARK   66  A    between atoms: _152  and  _155
REMARK   67  A    between atoms: _155  and  _156
REMARK   68  A    between atoms: _158  and  _160
REMARK   69  A    between atoms: _160  and  _161
REMARK   70  A    between atoms: _163  and  _165
REMARK   71  A    between atoms: _165  and  _166
REMARK   72  A    between atoms: _168  and  _170
REMARK   73  A    between atoms: _170  and  _171
REMARK   74  A    between atoms: _170  and  _173
REMARK   75  A    between atoms: _173  and  _174
REMARK   76  A    between atoms: _177  and  _179
REMARK   77  A    between atoms: _179  and  _180
REMARK   78  A    between atoms: _179  and  _182
REMARK   79  A    between atoms: _185  and  _187
REMARK   80  A    between atoms: _187  and  _188
REMARK   81  A    between atoms: _187  and  _190
REMARK   82  A    between atoms: _190  and  _191
REMARK   83  A    between atoms: _193  and  _195
REMARK   84  A    between atoms: _195  and  _196
REMARK   85  A    between atoms: _195  and  _198
REMARK   86  A    between atoms: _198  and  _199
REMARK   87  A    between atoms: _209  and  _211
REMARK   88  A    between atoms: _211  and  _212
REMARK   89  A    between atoms: _214  and  _216
REMARK   90  A    between atoms: _216  and  _217
REMARK   91  A    between atoms: _216  and  _219
REMARK   92  A    between atoms: _219  and  _220
REMARK   93  A    between atoms: _225  and  _226
REMARK   94  A    between atoms: _228  and  _230
REMARK   95  A    between atoms: _230  and  _231
REMARK   96  A    between atoms: _233  and  _235
REMARK   97  A    between atoms: _235  and  _236
REMARK   98  A    between atoms: _235  and  _238
REMARK   99  A    between atoms: _238  and  _239
REMARK  100  A    between atoms: _240  and  _242
REMARK  101  A    between atoms: _242  and  _243
REMARK  102  A    between atoms: _246  and  _248
REMARK  103  A    between atoms: _248  and  _249
REMARK  104  A    between atoms: _248  and  _251
REMARK  105  A    between atoms: _251  and  _252
REMARK  106  A    between atoms: _255  and  _257
REMARK  107  A    between atoms: _257  and  _258
REMARK  108  A    between atoms: _257  and  _260
REMARK  109  A    between atoms: _260  and  _261
REMARK  110  A    between atoms: _267  and  _268
REMARK  111  A    between atoms: _273  and  _275
REMARK  112  A    between atoms: _275  and  _276
REMARK  113  A    between atoms: _278  and  _280
REMARK  114  A    between atoms: _280  and  _281
REMARK  115  A    between atoms: _280  and  _283
REMARK  116  A    between atoms: _286  and  _288
REMARK  117  A    between atoms: _288  and  _289
REMARK  118  A    between atoms: _288  and  _291
REMARK  119  A    between atoms: _291  and  _292
REMARK  120  A    between atoms: _297  and  _298
REMARK                            x       y       z     vdW  Elec       q    Type
REMARK                         _______ _______ _______ _____ _____    ______ ____
ROOT
ATOM      1  CG  TYR A   1      15.582  57.082  57.171  0.00  0.00    -0.020 A 
ATOM      2  CD2 TYR A   1      14.758  56.808  58.265  0.00  0.00    -0.001 A 
ATOM      3  CE2 TYR A   1      13.397  56.562  58.104  0.00  0.00    +0.036 A 
ATOM      4  CZ  TYR A   1      12.844  56.590  56.837  0.00  0.00    +0.134 A 
ATOM      5  CE1 TYR A   1      13.639  56.864  55.728  0.00  0.00    +0.036 A 
ATOM      6  CD1 TYR A   1      15.004  57.108  55.901  0.00  0.00    -0.001 A 
ENDROOT
BRANCH   4   7
ATOM      7  OH  TYR A   1      11.503  56.323  56.685  0.00  0.00    -0.506 OA
ATOM      8  HH  TYR A   1      11.390  55.525  56.111  0.00  0.00    +0.292 HD
ENDBRANCH   4   7
BRANCH   1   9
ATOM      9  CB  TYR A   1      17.060  57.339  57.363  0.00  0.00    +0.051 C 
BRANCH   9  10
ATOM     10  CA  TYR A   1      17.361  58.734  57.910  0.00  0.00    +0.137 C 
BRANCH  10  11
ATOM     11  N   TYR A   1      16.849  59.742  56.979  0.00  0.00    -0.239 NA
ATOM     12  H   TYR A   1      17.308  59.852  56.052  0.00  0.00    +0.142 HD
ENDBRANCH  10  11
BRANCH  10  13
ATOM     13  C   TYR A   1      18.862  58.891  58.166  0.00  0.00    +0.224 C 
ATOM     14  O   TYR A   1      19.678  58.099  57.677  0.00  0.00    -0.287 OA
ENDBRANCH  10  13
ENDBRANCH   9  10
ENDBRANCH   1   9
TORSDOF 5
REMARK  Name = ../refined-set-2016/1j14/1j14_pocket.pdb
REMARK  120 active torsions:
REMARK  status: ('A' for Active; 'I' for Inactive)
REMARK    1  A    between atoms: _1  and  _5
REMARK    2  A    between atoms: _5  and  _6
REMARK    3  A    between atoms: _5  and  _8
REMARK    4  A    between atoms: _8  and  _9
REMARK    5  A    between atoms: _12  and  _14
REMARK    6  A    between atoms: _14  and  _15
REMARK    7  A    between atoms: _14  and  _17
REMARK    8  A    between atoms: _20  and  _22
REMARK    9  A    between atoms: _22  and  _23
REMARK   10  A    between atoms: _22  and  _25
REMARK   11  A    between atoms: _25  and  _26
REMARK   12  A    between atoms: _31  and  _33
REMARK   13  A    between atoms: _33  and  _34
REMARK   14  A    between atoms: _33  and  _36
REMARK   15  A    between atoms: _36  and  _37
REMARK   16  A    between atoms: _42  and  _43
REMARK   17  A    between atoms: _45  and  _47
REMARK   18  A    between atoms: _47  and  _48
REMARK   19  A    between atoms: _47  and  _50
REMARK   20  A    between atoms: _50  and  _51
REMARK   21  A    between atoms: _54  and  _56
REMARK   22  A    between atoms: _56  and  _57
REMARK   23  A    between atoms: _56  and  _59
REMARK   24  A    between atoms: _59  and  _60
REMARK   25  A    between atoms: _65  and  _67
REMARK   26  A    between atoms: _67  and  _68
REMARK   27  A    between atoms: _67  and  _70
REMARK   28  A    between atoms: _70  and  _71
REMARK   29  A    between atoms: _76  and  _77
REMARK   30  A    between atoms: _79  and  _81
REMARK   31  A    between atoms: _81  and  _82
REMARK   32  A    between atoms: _81  and  _84
REMARK   33  A    between atoms: _87  and  _89
REMARK   34  A    between atoms: _89  and  _90
REMARK   35  A    between atoms: _89  and  _92
REMARK   36  A    between atoms: _92  and  _93
REMARK   37  A    between atoms: _93  and  _94
REMARK   38  A    between atoms: _94  and  _95
REMARK   39  A    between atoms: _95  and  _96
REMARK   40  A    between atoms: _100  and  _102
REMARK   41  A    between atoms: _102  and  _103
REMARK   42  A    between atoms: _102  and  _105
REMARK   43  A    between atoms: _105  and  _106
REMARK   44  A    between atoms: _109  and  _111
REMARK   45  A    between atoms: _111  and  _112
REMARK   46  A    between atoms: _111  and  _114
REMARK   47  A    between atoms: _114  and  _115
REMARK   48  A    between atoms: _117  and  _119
REMARK   49  A    between atoms: _119  and  _120
REMARK   50  A    between atoms: _119  and  _122
REMARK   51  A    between atoms: _122  and  _123
REMARK   52  A    between atoms: _123  and  _239
REMARK   53  A    between atoms: _124  and  _126
REMARK   54  A    between atoms: _126  and  _127
REMARK   55  A    between atoms: _126  and  _129
REMARK   56  A    between atoms: _129  and  _130
REMARK   57  A    between atoms: _130  and  _131
REMARK   58  A    between atoms: _136  and  _138
REMARK   59  A    between atoms: _138  and  _139
REMARK   60  A    between atoms: _141  and  _143
REMARK   61  A    between atoms: _143  and  _144
REMARK   62  A    between atoms: _143  and  _146
REMARK   63  A    between atoms: _146  and  _147
REMARK   64  A    between atoms: _150  and  _152
REMARK   65  A    between atoms: _152  and  _153
REMARK   66  A    between atoms: _152  and  _155
REMARK   67  A    between atoms: _155  and  _156
REMARK   68  A    between atoms: _158  and  _160
REMARK   69  A    between atoms: _160  and  _161
REMARK   70  A    between atoms: _163  and  _165
REMARK   71  A    between atoms: _165  and  _166
REMARK   72  A    between atoms: _168  and  _170
REMARK   73  A    between atoms: _170  and  _171
REMARK   74  A    between atoms: _170  and  _173
REMARK   75  A    between atoms: _173  and  _174
REMARK   76  A    between atoms: _177  and  _179
REMARK   77  A    between atoms: _179  and  _180
REMARK   78  A    between atoms: _179  and  _182
REMARK   79  A    between atoms: _185  and  _187
REMARK   80  A    between atoms: _187  and  _188
REMARK   81  A    between atoms: _187  and  _190
REMARK   82  A    between atoms: _190  and  _191
REMARK   83  A    between atoms: _193  and  _195
REMARK   84  A    between atoms: _195  and  _196
REMARK   85  A    between atoms: _195  and  _198
REMARK   86  A    between atoms: _198  and  _199
REMARK   87  A    between atoms: _209  and  _211
REMARK   88  A    between atoms: _211  and  _212
REMARK   89  A    between atoms: _214  and  _216
REMARK   90  A    between atoms: _216  and  _217
REMARK   91  A    between atoms: _216  and  _219
REMARK   92  A    between atoms: _219  and  _220
REMARK   93  A    between atoms: _225  and  _226
REMARK   94  A    between atoms: _228  and  _230
REMARK   95  A    between atoms: _230  and  _231
REMARK   96  A    between atoms: _233  and  _235
REMARK   97  A    between atoms: _235  and  _236
REMARK   98  A    between atoms: _235  and  _238
REMARK   99  A    between atoms: _238  and  _239
REMARK  100  A    between atoms: _240  and  _242
REMARK  101  A    between atoms: _242  and  _243
REMARK  102  A    between atoms: _246  and  _248
REMARK  103  A    between atoms: _248  and  _249
REMARK  104  A    between atoms: _248  and  _251
REMARK  105  A    between atoms: _251  and  _252
REMARK  106  A    between atoms: _255  and  _257
REMARK  107  A    between atoms: _257  and  _258
REMARK  108  A    between atoms: _257  and  _260
REMARK  109  A    between atoms: _260  and  _261
REMARK  110  A    between atoms: _267  and  _268
REMARK  111  A    between atoms: _273  and  _275
REMARK  112  A    between atoms: _275  and  _276
REMARK  113  A    between atoms: _278  and  _280
REMARK  114  A    between atoms: _280  and  _281
REMARK  115  A    between atoms: _280  and  _283
REMARK  116  A    between atoms: _286  and  _288
REMARK  117  A    between atoms: _288  and  _289
REMARK  118  A    between atoms: _288  and  _291
REMARK  119  A    between atoms: _291  and  _292
REMARK  120  A    between atoms: _297  and  _298
REMARK                            x       y       z     vdW  Elec       q    Type
REMARK                         _______ _______ _______ _____ _____    ______ ____
ROOT
ATOM      1  CA  VAL A   1      11.173  55.422  46.949  0.00  0.00    +0.133 C 
ENDROOT
BRANCH   1   2
ATOM      2  CB  VAL A   1      10.908  54.045  46.306  0.00  0.00    +0.023 C 
ATOM      3  CG2 VAL A   1      12.184  53.483  45.718  0.00  0.00    +0.002 C 
ATOM      4  CG1 VAL A   1       9.842  54.159  45.229  0.00  0.00    +0.002 C 
ENDBRANCH   1   2
BRANCH   1   5
ATOM      5  N   VAL A   1      12.150  55.333  48.021  0.00  0.00    -0.239 NA
ATOM      6  H   VAL A   1      11.844  54.973  48.947  0.00  0.00    +0.142 HD
ENDBRANCH   1   5
BRANCH   1   7
ATOM      7  C   VAL A   1       9.900  55.905  47.620  0.00  0.00    +0.224 C 
ATOM      8  O   VAL A   1       9.539  55.424  48.694  0.00  0.00    -0.287 OA
ENDBRANCH   1   7
TORSDOF 3
REMARK  Name = ../refined-set-2016/1j14/1j14_pocket.pdb
REMARK  120 active torsions:
REMARK  status: ('A' for Active; 'I' for Inactive)
REMARK    1  A    between atoms: _1  and  _5
REMARK    2  A    between atoms: _5  and  _6
REMARK    3  A    between atoms: _5  and  _8
REMARK    4  A    between atoms: _8  and  _9
REMARK    5  A    between atoms: _12  and  _14
REMARK    6  A    between atoms: _14  and  _15
REMARK    7  A    between atoms: _14  and  _17
REMARK    8  A    between atoms: _20  and  _22
REMARK    9  A    between atoms: _22  and  _23
REMARK   10  A    between atoms: _22  and  _25
REMARK   11  A    between atoms: _25  and  _26
REMARK   12  A    between atoms: _31  and  _33
REMARK   13  A    between atoms: _33  and  _34
REMARK   14  A    between atoms: _33  and  _36
REMARK   15  A    between atoms: _36  and  _37
REMARK   16  A    between atoms: _42  and  _43
REMARK   17  A    between atoms: _45  and  _47
REMARK   18  A    between atoms: _47  and  _48
REMARK   19  A    between atoms: _47  and  _50
REMARK   20  A    between atoms: _50  and  _51
REMARK   21  A    between atoms: _54  and  _56
REMARK   22  A    between atoms: _56  and  _57
REMARK   23  A    between atoms: _56  and  _59
REMARK   24  A    between atoms: _59  and  _60
REMARK   25  A    between atoms: _65  and  _67
REMARK   26  A    between atoms: _67  and  _68
REMARK   27  A    between atoms: _67  and  _70
REMARK   28  A    between atoms: _70  and  _71
REMARK   29  A    between atoms: _76  and  _77
REMARK   30  A    between atoms: _79  and  _81
REMARK   31  A    between atoms: _81  and  _82
REMARK   32  A    between atoms: _81  and  _84
REMARK   33  A    between atoms: _87  and  _89
REMARK   34  A    between atoms: _89  and  _90
REMARK   35  A    between atoms: _89  and  _92
REMARK   36  A    between atoms: _92  and  _93
REMARK   37  A    between atoms: _93  and  _94
REMARK   38  A    between atoms: _94  and  _95
REMARK   39  A    between atoms: _95  and  _96
REMARK   40  A    between atoms: _100  and  _102
REMARK   41  A    between atoms: _102  and  _103
REMARK   42  A    between atoms: _102  and  _105
REMARK   43  A    between atoms: _105  and  _106
REMARK   44  A    between atoms: _109  and  _111
REMARK   45  A    between atoms: _111  and  _112
REMARK   46  A    between atoms: _111  and  _114
REMARK   47  A    between atoms: _114  and  _115
REMARK   48  A    between atoms: _117  and  _119
REMARK   49  A    between atoms: _119  and  _120
REMARK   50  A    between atoms: _119  and  _122
REMARK   51  A    between atoms: _122  and  _123
REMARK   52  A    between atoms: _123  and  _239
REMARK   53  A    between atoms: _124  and  _126
REMARK   54  A    between atoms: _126  and  _127
REMARK   55  A    between atoms: _126  and  _129
REMARK   56  A    between atoms: _129  and  _130
REMARK   57  A    between atoms: _130  and  _131
REMARK   58  A    between atoms: _136  and  _138
REMARK   59  A    between atoms: _138  and  _139
REMARK   60  A    between atoms: _141  and  _143
REMARK   61  A    between atoms: _143  and  _144
REMARK   62  A    between atoms: _143  and  _146
REMARK   63  A    between atoms: _146  and  _147
REMARK   64  A    between atoms: _150  and  _152
REMARK   65  A    between atoms: _152  and  _153
REMARK   66  A    between atoms: _152  and  _155
REMARK   67  A    between atoms: _155  and  _156
REMARK   68  A    between atoms: _158  and  _160
REMARK   69  A    between atoms: _160  and  _161
REMARK   70  A    between atoms: _163  and  _165
REMARK   71  A    between atoms: _165  and  _166
REMARK   72  A    between atoms: _168  and  _170
REMARK   73  A    between atoms: _170  and  _171
REMARK   74  A    between atoms: _170  and  _173
REMARK   75  A    between atoms: _173  and  _174
REMARK   76  A    between atoms: _177  and  _179
REMARK   77  A    between atoms: _179  and  _180
REMARK   78  A    between atoms: _179  and  _182
REMARK   79  A    between atoms: _185  and  _187
REMARK   80  A    between atoms: _187  and  _188
REMARK   81  A    between atoms: _187  and  _190
REMARK   82  A    between atoms: _190  and  _191
REMARK   83  A    between atoms: _193  and  _195
REMARK   84  A    between atoms: _195  and  _196
REMARK   85  A    between atoms: _195  and  _198
REMARK   86  A    between atoms: _198  and  _199
REMARK   87  A    between atoms: _209  and  _211
REMARK   88  A    between atoms: _211  and  _212
REMARK   89  A    between atoms: _214  and  _216
REMARK   90  A    between atoms: _216  and  _217
REMARK   91  A    between atoms: _216  and  _219
REMARK   92  A    between atoms: _219  and  _220
REMARK   93  A    between atoms: _225  and  _226
REMARK   94  A    between atoms: _228  and  _230
REMARK   95  A    between atoms: _230  and  _231
REMARK   96  A    between atoms: _233  and  _235
REMARK   97  A    between atoms: _235  and  _236
REMARK   98  A    between atoms: _235  and  _238
REMARK   99  A    between atoms: _238  and  _239
REMARK  100  A    between atoms: _240  and  _242
REMARK  101  A    between atoms: _242  and  _243
REMARK  102  A    between atoms: _246  and  _248
REMARK  103  A    between atoms: _248  and  _249
REMARK  104  A    between atoms: _248  and  _251
REMARK  105  A    between atoms: _251  and  _252
REMARK  106  A    between atoms: _255  and  _257
REMARK  107  A    between atoms: _257  and  _258
REMARK  108  A    between atoms: _257  and  _260
REMARK  109  A    between atoms: _260  and  _261
REMARK  110  A    between atoms: _267  and  _268
REMARK  111  A    between atoms: _273  and  _275
REMARK  112  A    between atoms: _275  and  _276
REMARK  113  A    between atoms: _278  and  _280
REMARK  114  A    between atoms: _280  and  _281
REMARK  115  A    between atoms: _280  and  _283
REMARK  116  A    between atoms: _286  and  _288
REMARK  117  A    between atoms: _288  and  _289
REMARK  118  A    between atoms: _288  and  _291
REMARK  119  A    between atoms: _291  and  _292
REMARK  120  A    between atoms: _297  and  _298
REMARK                            x       y       z     vdW  Elec       q    Type
REMARK                         _______ _______ _______ _____ _____    ______ ____
ROOT
ATOM      1  CA  SER A   8       3.868  54.252  57.287  0.00  0.00    +0.160 C 
ENDROOT
BRANCH   1   2
ATOM      2  C   SER A   8       3.155  55.461  56.723  0.00  0.00    +0.242 C 
ATOM      3  O   SER A   8       2.244  56.001  57.344  0.00  0.00    -0.273 OA
ATOM      4  N   GLY A   9       3.625  55.912  55.569  0.00  0.00    -0.297 N 
ATOM      5  H   GLY A   9       4.442  55.430  55.143  0.00  0.00    +0.150 HD
BRANCH   4   6
ATOM      6  CA  GLY A   9       3.047  57.055  54.869  0.00  0.00    +0.149 C 
ATOM      7  CB  GLY A   9       1.590  56.776  54.526  0.00  0.00    +0.031 C 
BRANCH   6   8
ATOM      8  C   GLY A   9       3.175  58.381  55.621  0.00  0.00    +0.241 C 
ATOM      9  N   GLY A  10       4.211  58.505  56.438  0.00  0.00    -0.298 N 
ATOM     10  H   GLY A  10       4.878  57.713  56.534  0.00  0.00    +0.150 HD
ATOM     11  O   GLY A   9       2.370  59.286  55.429  0.00  0.00    -0.273 OA
BRANCH   9  12
ATOM     12  CA  GLY A  10       4.440  59.721  57.204  0.00  0.00    +0.137 C 
BRANCH  12  13
ATOM     13  C   GLY A  10       5.296  60.712  56.425  0.00  0.00    +0.227 C 
ATOM     14  O   GLY A  10       6.185  60.319  55.660  0.00  0.00    -0.286 OA
ENDBRANCH  12  13
BRANCH  12  15
ATOM     15  CB  GLY A  10       5.132  59.414  58.537  0.00  0.00    +0.028 C 
BRANCH  15  16
ATOM     16  CG  GLY A  10       4.391  58.564  59.567  0.00  0.00    +0.002 C 
ATOM     17  CD2 GLY A  10       5.269  58.402  60.793  0.00  0.00    +0.000 C 
ATOM     18  CD1 GLY A  10       3.068  59.214  59.932  0.00  0.00    +0.000 C 
ENDBRANCH  15  16
ENDBRANCH  12  15
ENDBRANCH   9  12
ENDBRANCH   6   8
ENDBRANCH   4   6
ENDBRANCH   1   2
BRANCH   1  19
ATOM     19  N   SER A   8       4.411  54.536  58.605  0.00  0.00    -0.296 N 
ATOM     20  H   SER A   8       3.854  55.107  59.272  0.00  0.00    +0.150 HD
ATOM     21  C   ASP A   7       5.600  54.083  58.975  0.00  0.00    +0.243 C 
ATOM     22  O   ASP A   7       6.308  53.379  58.244  0.00  0.00    -0.273 OA
BRANCH  21  23
ATOM     23  CA  ASP A   7       6.053  54.455  60.372  0.00  0.00    +0.176 C 
BRANCH  23  24
ATOM     24  N   ASP A   7       7.482  54.278  60.493  0.00  0.00    -0.295 N 
ATOM     25  H   ASP A   7       7.861  53.485  61.049  0.00  0.00    +0.150 HD
ATOM     26  C   GLY A   6       8.312  55.124  59.896  0.00  0.00    +0.241 C 
ATOM     27  O   GLY A   6       7.925  56.078  59.224  0.00  0.00    -0.273 OA
BRANCH  26  28
ATOM     28  CA  GLY A   6       9.798  54.848  60.070  0.00  0.00    +0.153 C 
BRANCH  28  29
ATOM     29  N   GLY A   6      10.328  54.383  58.798  0.00  0.00    -0.297 N 
ATOM     30  C   GLN A   5      10.328  53.095  58.479  0.00  0.00    +0.243 C 
ATOM     31  O   GLN A   5       9.925  52.217  59.244  0.00  0.00    -0.273 OA
ATOM     32  H   GLY A   6      10.715  55.074  58.124  0.00  0.00    +0.150 HD
BRANCH  30  33
ATOM     33  CA  GLN A   5      10.886  52.728  57.118  0.00  0.00    +0.176 C 
BRANCH  33  34
ATOM     34  N   GLN A   5      11.249  51.327  57.099  0.00  0.00    -0.295 N 
ATOM     35  H   GLN A   5      11.336  50.813  57.999  0.00  0.00    +0.150 HD
ATOM     36  C   TRP A   4      11.473  50.683  55.960  0.00  0.00    +0.241 C 
ATOM     37  O   TRP A   4      11.337  51.210  54.852  0.00  0.00    -0.273 OA
BRANCH  36  38
ATOM     38  CA  TRP A   4      11.856  49.210  56.095  0.00  0.00    +0.153 C 
BRANCH  38  39
ATOM     39  N   TRP A   4      12.244  48.559  54.850  0.00  0.00    -0.297 N 
ATOM     40  C   SER A   3      12.161  47.238  54.729  0.00  0.00    +0.243 C 
ATOM     41  O   SER A   3      11.725  46.515  55.623  0.00  0.00    -0.273 OA
ATOM     42  H   TRP A   4      12.588  49.131  54.052  0.00  0.00    +0.150 HD
BRANCH  40  43
ATOM     43  CA  SER A   3      12.615  46.625  53.415  0.00  0.00    +0.178 C 
BRANCH  43  44
ATOM     44  N   SER A   3      11.787  46.965  52.276  0.00  0.00    -0.295 N 
ATOM     45  H   SER A   3      11.692  47.961  51.992  0.00  0.00    +0.150 HD
ATOM     46  C   VAL A   2      11.148  46.026  51.589  0.00  0.00    +0.241 C 
ATOM     47  O   VAL A   2      11.171  44.827  51.901  0.00  0.00    -0.273 OA
BRANCH  46  48
ATOM     48  CA  VAL A   2      10.354  46.500  50.372  0.00  0.00    +0.148 C 
BRANCH  48  49
ATOM     49  N   VAL A   2      10.865  45.816  49.183  0.00  0.00    -0.297 N 
ATOM     50  C   ILE A   1      12.141  45.929  48.824  0.00  0.00    +0.238 C 
ATOM     51  O   ILE A   1      12.938  46.656  49.416  0.00  0.00    -0.274 OA
ATOM     52  H   VAL A   2      10.221  45.233  48.611  0.00  0.00    +0.150 HD
BRANCH  50  53
ATOM     53  CA  ILE A   1      12.587  45.178  47.575  0.00  0.00    +0.145 C 
BRANCH  53  54
ATOM     54  N   ILE A   1      13.304  46.157  46.766  0.00  0.00    -0.238 NA
ATOM     55  H   ILE A   1      14.023  46.744  47.235  0.00  0.00    +0.142 HD
ENDBRANCH  53  54
BRANCH  53  56
ATOM     56  CB  ILE A   1      13.524  44.017  47.988  0.00  0.00    +0.025 C 
ATOM     57  CG2 ILE A   1      12.832  43.088  48.972  0.00  0.00    +0.002 C 
BRANCH  56  58
ATOM     58  CG1 ILE A   1      13.973  43.238  46.750  0.00  0.00    +0.002 C 
ATOM     59  CD1 ILE A   1      15.037  42.227  47.022  0.00  0.00    +0.000 C 
ENDBRANCH  56  58
ENDBRANCH  53  56
ENDBRANCH  50  53
ENDBRANCH  48  49
BRANCH  48  60
ATOM     60  CB  VAL A   2       8.849  46.238  50.588  0.00  0.00    +0.027 C 
ATOM     61  CG2 VAL A   2       8.362  46.984  51.823  0.00  0.00    +0.002 C 
ATOM     62  CG1 VAL A   2       8.049  46.667  49.361  0.00  0.00    +0.002 C 
ENDBRANCH  48  60
ENDBRANCH  46  48
ENDBRANCH  43  44
BRANCH  43  63
ATOM     63  CB  SER A   3      14.071  47.003  53.116  0.00  0.00    +0.166 C 
BRANCH  63  64
ATOM     64  OG  SER A   3      14.959  46.538  54.114  0.00  0.00    -0.380 OA
ATOM     65  H   SER A   3      14.902  45.551  54.171  0.00  0.00    +0.211 HD
ENDBRANCH  63  64
ENDBRANCH  43  63
ENDBRANCH  40  43
ENDBRANCH  38  39
BRANCH  38  66
ATOM     66  CB  TRP A   4      12.978  49.058  57.139  0.00  0.00    +0.057 C 
BRANCH  66  67
ATOM     67  CG  TRP A   4      14.279  49.707  56.756  0.00  0.00    -0.002 A 
ATOM     68  CD2 TRP A   4      14.760  50.992  57.178  0.00  0.00    +0.013 A 
ATOM     69  CE3 TRP A   4      14.254  51.995  58.019  0.00  0.00    +0.001 A 
ATOM     70  CZ3 TRP A   4      15.007  53.151  58.206  0.00  0.00    +0.000 A 
ATOM     71  CH2 TRP A   4      16.257  53.317  57.572  0.00  0.00    +0.001 A 
ATOM     72  CZ2 TRP A   4      16.772  52.352  56.748  0.00  0.00    +0.017 A 
ATOM     73  CE2 TRP A   4      16.015  51.189  56.561  0.00  0.00    +0.056 A 
ATOM     74  NE1 TRP A   4      16.274  50.080  55.800  0.00  0.00    -0.352 N 
ATOM     75  HE1 TRP A   4      17.124  49.932  55.220  0.00  0.00    +0.166 HD
ATOM     76  CD1 TRP A   4      15.233  49.197  55.926  0.00  0.00    +0.068 A 
ENDBRANCH  66  67
ENDBRANCH  38  66
ENDBRANCH  36  38
ENDBRANCH  33  34
ENDBRANCH  30  33
ENDBRANCH  28  29
BRANCH  28  77
ATOM     77  CB  GLY A   6      10.524  56.114  60.533  0.00  0.00    +0.055 C 
BRANCH  77  78
ATOM     78  CG  GLY A   6       9.912  56.755  61.765  0.00  0.00    -0.020 A 
ATOM     79  CD2 GLY A   6      10.183  56.264  63.043  0.00  0.00    -0.001 A 
ATOM     80  CE2 GLY A   6       9.590  56.827  64.170  0.00  0.00    +0.036 A 
ATOM     81  CZ  GLY A   6       8.717  57.892  64.022  0.00  0.00    +0.134 A 
ATOM     82  CE1 GLY A   6       8.439  58.400  62.764  0.00  0.00    +0.036 A 
ATOM     83  CD1 GLY A   6       9.034  57.832  61.647  0.00  0.00    -0.001 A 
BRANCH  81  84
ATOM     84  OH  GLY A   6       8.103  58.438  65.125  0.00  0.00    -0.506 OA
ATOM     85  HH  GLY A   6       7.517  59.184  64.840  0.00  0.00    +0.292 HD
ENDBRANCH  81  84
ENDBRANCH  77  78
ENDBRANCH  28  77
ENDBRANCH  26  28
ENDBRANCH  23  24
ENDBRANCH  21  23
ENDBRANCH   1  19
BRANCH   1  86
ATOM     86  CB  SER A   8       2.915  53.054  57.340  0.00  0.00    +0.098 C 
BRANCH  86  87
ATOM     87  SG  SER A   8       3.763  51.460  57.607  0.00  0.00    -0.080 S 
BRANCH  87  88
ATOM     88  SG  TRP A   4       2.356  50.070  57.169  0.00  0.00    -0.080 S 
BRANCH  88  89
ATOM     89  CB  TRP A   4       2.558  49.765  55.388  0.00  0.00    +0.098 C 
BRANCH  89  90
ATOM     90  CA  TRP A   4       3.935  49.254  54.938  0.00  0.00    +0.160 C 
BRANCH  90  91
ATOM     91  C   TRP A   4       4.138  47.784  55.312  0.00  0.00    +0.242 C 
ATOM     92  N   GLN A   5       4.065  47.464  56.604  0.00  0.00    -0.297 N 
ATOM     93  H   GLN A   5       3.881  48.210  57.305  0.00  0.00    +0.150 HD
ATOM     94  O   TRP A   4       4.397  46.954  54.432  0.00  0.00    -0.273 OA
BRANCH  92  95
ATOM     95  CA  GLN A   5       4.239  46.082  57.054  0.00  0.00    +0.149 C 
BRANCH  95  96
ATOM     96  C   GLN A   5       3.346  45.128  56.261  0.00  0.00    +0.241 C 
ATOM     97  O   GLN A   5       2.163  45.413  56.034  0.00  0.00    -0.273 OA
ATOM     98  N   GLY A   6       3.905  43.996  55.856  0.00  0.00    -0.295 N 
ATOM     99  H   GLY A   6       4.894  43.791  56.102  0.00  0.00    +0.150 HD
BRANCH  98 100
ATOM    100  CA  GLY A   6       3.145  43.042  55.072  0.00  0.00    +0.176 C 
BRANCH 100 101
ATOM    101  C   GLY A   6       3.484  43.160  53.591  0.00  0.00    +0.243 C 
ATOM    102  N   ASP A   7       4.041  44.301  53.191  0.00  0.00    -0.296 N 
ATOM    103  H   ASP A   7       4.199  45.060  53.884  0.00  0.00    +0.150 HD
ATOM    104  O   GLY A   6       3.194  42.255  52.809  0.00  0.00    -0.273 OA
BRANCH 102 105
ATOM    105  CA  ASP A   7       4.435  44.509  51.801  0.00  0.00    +0.160 C 
BRANCH 105 106
ATOM    106  C   ASP A   7       5.888  44.085  51.695  0.00  0.00    +0.241 C 
ATOM    107  N   SER A   8       6.529  43.956  52.857  0.00  0.00    -0.295 N 
ATOM    108  H   SER A   8       6.001  44.145  53.733  0.00  0.00    +0.150 HD
ATOM    109  O   ASP A   7       6.409  43.888  50.593  0.00  0.00    -0.273 OA
BRANCH 107 110
ATOM    110  CA  SER A   8       7.926  43.565  52.968  0.00  0.00    +0.178 C 
BRANCH 110 111
ATOM    111  C   SER A   8       8.282  42.343  52.125  0.00  0.00    +0.243 C 
ATOM    112  O   SER A   8       7.550  41.354  52.101  0.00  0.00    -0.273 OA
ATOM    113  N   GLY A   9       9.391  42.463  51.396  0.00  0.00    -0.295 N 
ATOM    114  H   GLY A   9       9.944  43.341  51.461  0.00  0.00    +0.150 HD
BRANCH 113 115
ATOM    115  CA  GLY A   9       9.850  41.408  50.515  0.00  0.00    +0.176 C 
BRANCH 115 116
ATOM    116  C   GLY A   9       9.301  41.641  49.120  0.00  0.00    +0.243 C 
ATOM    117  N   GLY A  10       8.295  42.503  49.025  0.00  0.00    -0.296 N 
ATOM    118  H   GLY A  10       7.958  42.977  49.887  0.00  0.00    +0.150 HD
ATOM    119  O   GLY A   9       9.785  41.065  48.147  0.00  0.00    -0.273 OA
BRANCH 117 120
ATOM    120  CA  GLY A  10       7.650  42.807  47.761  0.00  0.00    +0.163 C 
BRANCH 120 121
ATOM    121  C   GLY A  10       8.501  43.570  46.768  0.00  0.00    +0.229 C 
ATOM    122  O   GLY A  10       9.506  44.175  47.151  0.00  0.00    -0.286 OA
ENDBRANCH 120 121
ENDBRANCH 117 120
ENDBRANCH 115 116
ENDBRANCH 113 115
ENDBRANCH 110 111
BRANCH 110 123
ATOM    123  CB  SER A   8       8.288  43.351  54.437  0.00  0.00    +0.166 C 
BRANCH 123 124
ATOM    124  OG  SER A   8       8.431  44.604  55.080  0.00  0.00    -0.380 OA
ATOM    125  H   SER A   8       8.665  44.461  56.031  0.00  0.00    +0.211 HD
ENDBRANCH 123 124
ENDBRANCH 110 123
ENDBRANCH 107 110
ENDBRANCH 105 106
BRANCH 105 126
ATOM    126  CB  ASP A   7       4.332  45.981  51.397  0.00  0.00    +0.143 C 
BRANCH 126 127
ATOM    127  CG  ASP A   7       2.904  46.464  51.272  0.00  0.00    +0.367 C 
ATOM    128  OD2 ASP A   7       2.617  47.600  51.698  0.00  0.00    -0.246 OA
ATOM    129  OD1 ASP A   7       2.063  45.722  50.735  0.00  0.00    -0.246 OA
ENDBRANCH 126 127
ENDBRANCH 105 126
ENDBRANCH 102 105
ENDBRANCH 100 101
ENDBRANCH  98 100
ENDBRANCH  95  96
BRANCH  95 130
ATOM    130  CB  GLN A   5       3.950  45.941  58.555  0.00  0.00    +0.039 C 
BRANCH 130 131
ATOM    131  CG  GLN A   5       5.126  46.283  59.476  0.00  0.00    +0.087 C 
BRANCH 131 132
ATOM    132  CD  GLN A   5       5.283  47.777  59.738  0.00  0.00    +0.219 C 
ATOM    133  NE2 GLN A   5       6.462  48.174  60.185  0.00  0.00    -0.329 N 
ATOM    134 HE21 GLN A   5       6.628  49.179  60.393  0.00  0.00    +0.145 HD
ATOM    135 HE22 GLN A   5       7.224  47.481  60.328  0.00  0.00    +0.145 HD
ATOM    136  OE1 GLN A   5       4.349  48.560  59.552  0.00  0.00    -0.275 OA
ENDBRANCH 131 132
ENDBRANCH 130 131
ENDBRANCH  95 130
ENDBRANCH  92  95
ENDBRANCH  90  91
BRANCH  90 139
ATOM    137  C   SER A   3       4.418  50.555  52.957  0.00  0.00    +0.243 C 
ATOM    138  O   SER A   3       4.750  51.523  53.654  0.00  0.00    -0.273 OA
ATOM    139  N   TRP A   4       4.041  49.401  53.492  0.00  0.00    -0.296 N 
ATOM    140  H   TRP A   4       3.819  48.594  52.874  0.00  0.00    +0.150 HD
BRANCH 137 141
ATOM    141  CA  SER A   3       4.474  50.657  51.427  0.00  0.00    +0.178 C 
BRANCH 141 143
ATOM    142  C   VAL A   2       3.581  52.895  51.098  0.00  0.00    +0.241 C 
ATOM    143  N   SER A   3       4.629  52.087  51.195  0.00  0.00    -0.295 N 
ATOM    144  H   SER A   3       5.586  52.485  51.103  0.00  0.00    +0.150 HD
ATOM    145  O   VAL A   2       2.425  52.478  51.040  0.00  0.00    -0.273 OA
BRANCH 142 146
ATOM    146  CA  VAL A   2       3.879  54.387  50.959  0.00  0.00    +0.160 C 
BRANCH 146 148
ATOM    147  C   ILE A   1       2.668  56.424  50.387  0.00  0.00    +0.238 C 
ATOM    148  N   VAL A   2       2.658  55.104  50.572  0.00  0.00    -0.297 N 
ATOM    149  H   VAL A   2       1.773  54.575  50.440  0.00  0.00    +0.150 HD
ATOM    150  O   ILE A   1       3.696  57.105  50.463  0.00  0.00    -0.274 OA
BRANCH 147 151
ATOM    151  CA  ILE A   1       1.340  57.084  50.046  0.00  0.00    +0.145 C 
BRANCH 151 152
ATOM    152  N   ILE A   1       1.210  58.299  50.851  0.00  0.00    -0.238 NA
ATOM    153  H   ILE A   1       1.964  59.014  50.802  0.00  0.00    +0.142 HD
ENDBRANCH 151 152
BRANCH 151 154
ATOM    154  CB  ILE A   1       1.278  57.444  48.560  0.00  0.00    +0.026 C 
BRANCH 154 155
ATOM    155  CG  ILE A   1      -0.039  58.095  48.163  0.00  0.00    -0.000 C 
BRANCH 155 156
ATOM    156  CD  ILE A   1       0.027  58.795  46.822  0.00  0.00    -0.024 C 
BRANCH 156 157
ATOM    157  CE  ILE A   1      -0.974  58.192  45.851  0.00  0.00    -0.086 C 
BRANCH 157 158
ATOM    158  NZ  ILE A   1      -1.457  59.191  44.861  0.00  0.00    +0.380 N 
ATOM    159  HZ1 ILE A   1      -1.920  59.977  45.361  0.00  0.00    -0.089 HD
ATOM    160  HZ2 ILE A   1      -0.650  59.554  44.314  0.00  0.00    -0.089 HD
ATOM    161  HZ3 ILE A   1      -2.138  58.739  44.218  0.00  0.00    -0.089 HD
ENDBRANCH 157 158
ENDBRANCH 156 157
ENDBRANCH 155 156
ENDBRANCH 154 155
ENDBRANCH 151 154
ENDBRANCH 147 151
ENDBRANCH 146 148
BRANCH 146 162
ATOM    162  CB  VAL A   2       4.314  54.925  52.336  0.00  0.00    +0.143 C 
BRANCH 162 163
ATOM    163  CG  VAL A   2       5.741  54.556  52.722  0.00  0.00    +0.367 C 
ATOM    164  OD2 VAL A   2       6.108  54.893  53.866  0.00  0.00    -0.246 OA
ATOM    165  OD1 VAL A   2       6.497  53.978  51.912  0.00  0.00    -0.246 OA
ENDBRANCH 162 163
ENDBRANCH 146 162
ENDBRANCH 142 146
ENDBRANCH 141 143
BRANCH 141 166
ATOM    166  CB  SER A   3       5.667  49.874  50.867  0.00  0.00    +0.166 C 
BRANCH 166 167
ATOM    167  OG  SER A   3       6.888  50.402  51.356  0.00  0.00    -0.380 OA
ATOM    168  H   SER A   3       6.970  51.350  51.082  0.00  0.00    +0.211 HD
ENDBRANCH 166 167
ENDBRANCH 141 166
ENDBRANCH 137 141
ENDBRANCH  90 139
ENDBRANCH  89  90
ENDBRANCH  88  89
ENDBRANCH  87  88
ENDBRANCH  86  87
ENDBRANCH   1  86
TORSDOF 73
REMARK  Name = ../refined-set-2016/1j14/1j14_pocket.pdb
REMARK  120 active torsions:
REMARK  status: ('A' for Active; 'I' for Inactive)
REMARK    1  A    between atoms: _1  and  _5
REMARK    2  A    between atoms: _5  and  _6
REMARK    3  A    between atoms: _5  and  _8
REMARK    4  A    between atoms: _8  and  _9
REMARK    5  A    between atoms: _12  and  _14
REMARK    6  A    between atoms: _14  and  _15
REMARK    7  A    between atoms: _14  and  _17
REMARK    8  A    between atoms: _20  and  _22
REMARK    9  A    between atoms: _22  and  _23
REMARK   10  A    between atoms: _22  and  _25
REMARK   11  A    between atoms: _25  and  _26
REMARK   12  A    between atoms: _31  and  _33
REMARK   13  A    between atoms: _33  and  _34
REMARK   14  A    between atoms: _33  and  _36
REMARK   15  A    between atoms: _36  and  _37
REMARK   16  A    between atoms: _42  and  _43
REMARK   17  A    between atoms: _45  and  _47
REMARK   18  A    between atoms: _47  and  _48
REMARK   19  A    between atoms: _47  and  _50
REMARK   20  A    between atoms: _50  and  _51
REMARK   21  A    between atoms: _54  and  _56
REMARK   22  A    between atoms: _56  and  _57
REMARK   23  A    between atoms: _56  and  _59
REMARK   24  A    between atoms: _59  and  _60
REMARK   25  A    between atoms: _65  and  _67
REMARK   26  A    between atoms: _67  and  _68
REMARK   27  A    between atoms: _67  and  _70
REMARK   28  A    between atoms: _70  and  _71
REMARK   29  A    between atoms: _76  and  _77
REMARK   30  A    between atoms: _79  and  _81
REMARK   31  A    between atoms: _81  and  _82
REMARK   32  A    between atoms: _81  and  _84
REMARK   33  A    between atoms: _87  and  _89
REMARK   34  A    between atoms: _89  and  _90
REMARK   35  A    between atoms: _89  and  _92
REMARK   36  A    between atoms: _92  and  _93
REMARK   37  A    between atoms: _93  and  _94
REMARK   38  A    between atoms: _94  and  _95
REMARK   39  A    between atoms: _95  and  _96
REMARK   40  A    between atoms: _100  and  _102
REMARK   41  A    between atoms: _102  and  _103
REMARK   42  A    between atoms: _102  and  _105
REMARK   43  A    between atoms: _105  and  _106
REMARK   44  A    between atoms: _109  and  _111
REMARK   45  A    between atoms: _111  and  _112
REMARK   46  A    between atoms: _111  and  _114
REMARK   47  A    between atoms: _114  and  _115
REMARK   48  A    between atoms: _117  and  _119
REMARK   49  A    between atoms: _119  and  _120
REMARK   50  A    between atoms: _119  and  _122
REMARK   51  A    between atoms: _122  and  _123
REMARK   52  A    between atoms: _123  and  _239
REMARK   53  A    between atoms: _124  and  _126
REMARK   54  A    between atoms: _126  and  _127
REMARK   55  A    between atoms: _126  and  _129
REMARK   56  A    between atoms: _129  and  _130
REMARK   57  A    between atoms: _130  and  _131
REMARK   58  A    between atoms: _136  and  _138
REMARK   59  A    between atoms: _138  and  _139
REMARK   60  A    between atoms: _141  and  _143
REMARK   61  A    between atoms: _143  and  _144
REMARK   62  A    between atoms: _143  and  _146
REMARK   63  A    between atoms: _146  and  _147
REMARK   64  A    between atoms: _150  and  _152
REMARK   65  A    between atoms: _152  and  _153
REMARK   66  A    between atoms: _152  and  _155
REMARK   67  A    between atoms: _155  and  _156
REMARK   68  A    between atoms: _158  and  _160
REMARK   69  A    between atoms: _160  and  _161
REMARK   70  A    between atoms: _163  and  _165
REMARK   71  A    between atoms: _165  and  _166
REMARK   72  A    between atoms: _168  and  _170
REMARK   73  A    between atoms: _170  and  _171
REMARK   74  A    between atoms: _170  and  _173
REMARK   75  A    between atoms: _173  and  _174
REMARK   76  A    between atoms: _177  and  _179
REMARK   77  A    between atoms: _179  and  _180
REMARK   78  A    between atoms: _179  and  _182
REMARK   79  A    between atoms: _185  and  _187
REMARK   80  A    between atoms: _187  and  _188
REMARK   81  A    between atoms: _187  and  _190
REMARK   82  A    between atoms: _190  and  _191
REMARK   83  A    between atoms: _193  and  _195
REMARK   84  A    between atoms: _195  and  _196
REMARK   85  A    between atoms: _195  and  _198
REMARK   86  A    between atoms: _198  and  _199
REMARK   87  A    between atoms: _209  and  _211
REMARK   88  A    between atoms: _211  and  _212
REMARK   89  A    between atoms: _214  and  _216
REMARK   90  A    between atoms: _216  and  _217
REMARK   91  A    between atoms: _216  and  _219
REMARK   92  A    between atoms: _219  and  _220
REMARK   93  A    between atoms: _225  and  _226
REMARK   94  A    between atoms: _228  and  _230
REMARK   95  A    between atoms: _230  and  _231
REMARK   96  A    between atoms: _233  and  _235
REMARK   97  A    between atoms: _235  and  _236
REMARK   98  A    between atoms: _235  and  _238
REMARK   99  A    between atoms: _238  and  _239
REMARK  100  A    between atoms: _240  and  _242
REMARK  101  A    between atoms: _242  and  _243
REMARK  102  A    between atoms: _246  and  _248
REMARK  103  A    between atoms: _248  and  _249
REMARK  104  A    between atoms: _248  and  _251
REMARK  105  A    between atoms: _251  and  _252
REMARK  106  A    between atoms: _255  and  _257
REMARK  107  A    between atoms: _257  and  _258
REMARK  108  A    between atoms: _257  and  _260
REMARK  109  A    between atoms: _260  and  _261
REMARK  110  A    between atoms: _267  and  _268
REMARK  111  A    between atoms: _273  and  _275
REMARK  112  A    between atoms: _275  and  _276
REMARK  113  A    between atoms: _278  and  _280
REMARK  114  A    between atoms: _280  and  _281
REMARK  115  A    between atoms: _280  and  _283
REMARK  116  A    between atoms: _286  and  _288
REMARK  117  A    between atoms: _288  and  _289
REMARK  118  A    between atoms: _288  and  _291
REMARK  119  A    between atoms: _291  and  _292
REMARK  120  A    between atoms: _297  and  _298
REMARK                            x       y       z     vdW  Elec       q    Type
REMARK                         _______ _______ _______ _____ _____    ______ ____
ROOT
ATOM      1  C   GLY A   3      11.497  53.650  52.021  0.00  0.00    +0.243 C 
ATOM      2  N   VAL A   4      12.166  52.710  52.671  0.00  0.00    -0.297 N 
ATOM      3  H   VAL A   4      11.700  52.216  53.459  0.00  0.00    +0.150 HD
ATOM      4  O   GLY A   3      11.963  54.276  51.062  0.00  0.00    -0.273 OA
ENDROOT
BRANCH   1   5
ATOM      5  CA  GLY A   3      10.082  53.913  52.508  0.00  0.00    +0.176 C 
BRANCH   5   8
ATOM      6  C   PRO A   2      10.181  56.246  53.112  0.00  0.00    +0.241 C 
ATOM      7  O   PRO A   2      10.956  56.012  54.034  0.00  0.00    -0.273 OA
ATOM      8  N   GLY A   3       9.706  55.300  52.314  0.00  0.00    -0.295 N 
ATOM      9  H   GLY A   3       9.058  55.555  51.542  0.00  0.00    +0.150 HD
BRANCH   6  16
ATOM     10  C   ASN A   1       9.364  58.453  55.125  0.00  0.00    +0.242 C 
ATOM     11  O   ASN A   1       8.457  57.628  55.300  0.00  0.00    -0.273 OA
ATOM     12  N   PRO A   2      10.020  58.557  53.955  0.00  0.00    -0.272 N 
ATOM     13  CD  PRO A   2      11.113  59.486  53.619  0.00  0.00    +0.094 C 
ATOM     14  CG  PRO A   2      11.773  58.797  52.455  0.00  0.00    +0.024 C 
ATOM     15  CB  PRO A   2      10.580  58.285  51.711  0.00  0.00    +0.031 C 
ATOM     16  CA  PRO A   2       9.735  57.673  52.822  0.00  0.00    +0.152 C 
BRANCH  10  17
ATOM     17  CA  ASN A   1       9.754  59.432  56.234  0.00  0.00    +0.154 C 
BRANCH  17  18
ATOM     18  N   ASN A   1       9.313  60.783  55.904  0.00  0.00    -0.238 NA
ATOM     19  H   ASN A   1       8.344  60.927  55.556  0.00  0.00    +0.142 HD
ENDBRANCH  17  18
BRANCH  17  20
ATOM     20  CB  ASN A   1       9.158  58.966  57.569  0.00  0.00    +0.111 C 
BRANCH  20  21
ATOM     21  CG  ASN A   1       9.728  59.714  58.763  0.00  0.00    +0.221 C 
ATOM     22  OD1 ASN A   1      10.757  59.330  59.318  0.00  0.00    -0.275 OA
ATOM     23  ND2 ASN A   1       9.057  60.790  59.168  0.00  0.00    -0.329 N 
ATOM     24 HD21 ASN A   1       9.399  61.340  59.982  0.00  0.00    +0.145 HD
ATOM     25 HD22 ASN A   1       8.191  61.081  58.671  0.00  0.00    +0.145 HD
ENDBRANCH  20  21
ENDBRANCH  17  20
ENDBRANCH  10  17
ENDBRANCH   6  16
ENDBRANCH   5   8
ENDBRANCH   1   5
BRANCH   2  26
ATOM     26  CA  VAL A   4      13.530  52.345  52.321  0.00  0.00    +0.149 C 
BRANCH  26  27
ATOM     27  C   VAL A   4      13.482  50.955  51.704  0.00  0.00    +0.241 C 
ATOM     28  O   VAL A   4      12.807  50.052  52.219  0.00  0.00    -0.273 OA
ATOM     29  N   TYR A   5      14.180  50.794  50.588  0.00  0.00    -0.298 N 
ATOM     30  H   TYR A   5      14.735  51.594  50.221  0.00  0.00    +0.150 HD
BRANCH  29  31
ATOM     31  CA  TYR A   5      14.194  49.537  49.862  0.00  0.00    +0.141 C 
BRANCH  31  32
ATOM     32  C   TYR A   5      15.604  49.049  49.594  0.00  0.00    +0.227 C 
ATOM     33  O   TYR A   5      16.548  49.836  49.565  0.00  0.00    -0.286 OA
ENDBRANCH  31  32
BRANCH  31  34
ATOM     34  CB  TYR A   5      13.461  49.717  48.526  0.00  0.00    +0.054 C 
BRANCH  34  35
ATOM     35  CG  TYR A   5      12.042  50.223  48.676  0.00  0.00    -0.020 A 
ATOM     36  CD2 TYR A   5      11.786  51.555  49.005  0.00  0.00    -0.001 A 
ATOM     37  CE2 TYR A   5      10.487  52.011  49.194  0.00  0.00    +0.036 A 
ATOM     38  CZ  TYR A   5       9.429  51.132  49.053  0.00  0.00    +0.134 A 
ATOM     39  CE1 TYR A   5       9.657  49.809  48.720  0.00  0.00    +0.036 A 
ATOM     40  CD1 TYR A   5      10.958  49.363  48.537  0.00  0.00    -0.001 A 
BRANCH  38  41
ATOM     41  OH  TYR A   5       8.143  51.577  49.248  0.00  0.00    -0.506 OA
ATOM     42  HH  TYR A   5       7.944  52.301  48.603  0.00  0.00    +0.292 HD
ENDBRANCH  38  41
ENDBRANCH  34  35
ENDBRANCH  31  34
ENDBRANCH  29  31
ENDBRANCH  26  27
BRANCH  26  43
ATOM     43  CB  VAL A   4      14.437  52.341  53.566  0.00  0.00    +0.027 C 
ATOM     44  CG2 VAL A   4      14.241  53.619  54.364  0.00  0.00    +0.002 C 
ATOM     45  CG1 VAL A   4      15.887  52.177  53.159  0.00  0.00    +0.002 C 
ENDBRANCH  26  43
ENDBRANCH   2  26
TORSDOF 15
REMARK  Name = ../refined-set-2016/1j14/1j14_pocket.pdb
REMARK  120 active torsions:
REMARK  status: ('A' for Active; 'I' for Inactive)
REMARK    1  A    between atoms: _1  and  _5
REMARK    2  A    between atoms: _5  and  _6
REMARK    3  A    between atoms: _5  and  _8
REMARK    4  A    between atoms: _8  and  _9
REMARK    5  A    between atoms: _12  and  _14
REMARK    6  A    between atoms: _14  and  _15
REMARK    7  A    between atoms: _14  and  _17
REMARK    8  A    between atoms: _20  and  _22
REMARK    9  A    between atoms: _22  and  _23
REMARK   10  A    between atoms: _22  and  _25
REMARK   11  A    between atoms: _25  and  _26
REMARK   12  A    between atoms: _31  and  _33
REMARK   13  A    between atoms: _33  and  _34
REMARK   14  A    between atoms: _33  and  _36
REMARK   15  A    between atoms: _36  and  _37
REMARK   16  A    between atoms: _42  and  _43
REMARK   17  A    between atoms: _45  and  _47
REMARK   18  A    between atoms: _47  and  _48
REMARK   19  A    between atoms: _47  and  _50
REMARK   20  A    between atoms: _50  and  _51
REMARK   21  A    between atoms: _54  and  _56
REMARK   22  A    between atoms: _56  and  _57
REMARK   23  A    between atoms: _56  and  _59
REMARK   24  A    between atoms: _59  and  _60
REMARK   25  A    between atoms: _65  and  _67
REMARK   26  A    between atoms: _67  and  _68
REMARK   27  A    between atoms: _67  and  _70
REMARK   28  A    between atoms: _70  and  _71
REMARK   29  A    between atoms: _76  and  _77
REMARK   30  A    between atoms: _79  and  _81
REMARK   31  A    between atoms: _81  and  _82
REMARK   32  A    between atoms: _81  and  _84
REMARK   33  A    between atoms: _87  and  _89
REMARK   34  A    between atoms: _89  and  _90
REMARK   35  A    between atoms: _89  and  _92
REMARK   36  A    between atoms: _92  and  _93
REMARK   37  A    between atoms: _93  and  _94
REMARK   38  A    between atoms: _94  and  _95
REMARK   39  A    between atoms: _95  and  _96
REMARK   40  A    between atoms: _100  and  _102
REMARK   41  A    between atoms: _102  and  _103
REMARK   42  A    between atoms: _102  and  _105
REMARK   43  A    between atoms: _105  and  _106
REMARK   44  A    between atoms: _109  and  _111
REMARK   45  A    between atoms: _111  and  _112
REMARK   46  A    between atoms: _111  and  _114
REMARK   47  A    between atoms: _114  and  _115
REMARK   48  A    between atoms: _117  and  _119
REMARK   49  A    between atoms: _119  and  _120
REMARK   50  A    between atoms: _119  and  _122
REMARK   51  A    between atoms: _122  and  _123
REMARK   52  A    between atoms: _123  and  _239
REMARK   53  A    between atoms: _124  and  _126
REMARK   54  A    between atoms: _126  and  _127
REMARK   55  A    between atoms: _126  and  _129
REMARK   56  A    between atoms: _129  and  _130
REMARK   57  A    between atoms: _130  and  _131
REMARK   58  A    between atoms: _136  and  _138
REMARK   59  A    between atoms: _138  and  _139
REMARK   60  A    between atoms: _141  and  _143
REMARK   61  A    between atoms: _143  and  _144
REMARK   62  A    between atoms: _143  and  _146
REMARK   63  A    between atoms: _146  and  _147
REMARK   64  A    between atoms: _150  and  _152
REMARK   65  A    between atoms: _152  and  _153
REMARK   66  A    between atoms: _152  and  _155
REMARK   67  A    between atoms: _155  and  _156
REMARK   68  A    between atoms: _158  and  _160
REMARK   69  A    between atoms: _160  and  _161
REMARK   70  A    between atoms: _163  and  _165
REMARK   71  A    between atoms: _165  and  _166
REMARK   72  A    between atoms: _168  and  _170
REMARK   73  A    between atoms: _170  and  _171
REMARK   74  A    between atoms: _170  and  _173
REMARK   75  A    between atoms: _173  and  _174
REMARK   76  A    between atoms: _177  and  _179
REMARK   77  A    between atoms: _179  and  _180
REMARK   78  A    between atoms: _179  and  _182
REMARK   79  A    between atoms: _185  and  _187
REMARK   80  A    between atoms: _187  and  _188
REMARK   81  A    between atoms: _187  and  _190
REMARK   82  A    between atoms: _190  and  _191
REMARK   83  A    between atoms: _193  and  _195
REMARK   84  A    between atoms: _195  and  _196
REMARK   85  A    between atoms: _195  and  _198
REMARK   86  A    between atoms: _198  and  _199
REMARK   87  A    between atoms: _209  and  _211
REMARK   88  A    between atoms: _211  and  _212
REMARK   89  A    between atoms: _214  and  _216
REMARK   90  A    between atoms: _216  and  _217
REMARK   91  A    between atoms: _216  and  _219
REMARK   92  A    between atoms: _219  and  _220
REMARK   93  A    between atoms: _225  and  _226
REMARK   94  A    between atoms: _228  and  _230
REMARK   95  A    between atoms: _230  and  _231
REMARK   96  A    between atoms: _233  and  _235
REMARK   97  A    between atoms: _235  and  _236
REMARK   98  A    between atoms: _235  and  _238
REMARK   99  A    between atoms: _238  and  _239
REMARK  100  A    between atoms: _240  and  _242
REMARK  101  A    between atoms: _242  and  _243
REMARK  102  A    between atoms: _246  and  _248
REMARK  103  A    between atoms: _248  and  _249
REMARK  104  A    between atoms: _248  and  _251
REMARK  105  A    between atoms: _251  and  _252
REMARK  106  A    between atoms: _255  and  _257
REMARK  107  A    between atoms: _257  and  _258
REMARK  108  A    between atoms: _257  and  _260
REMARK  109  A    between atoms: _260  and  _261
REMARK  110  A    between atoms: _267  and  _268
REMARK  111  A    between atoms: _273  and  _275
REMARK  112  A    between atoms: _275  and  _276
REMARK  113  A    between atoms: _278  and  _280
REMARK  114  A    between atoms: _280  and  _281
REMARK  115  A    between atoms: _280  and  _283
REMARK  116  A    between atoms: _286  and  _288
REMARK  117  A    between atoms: _288  and  _289
REMARK  118  A    between atoms: _288  and  _291
REMARK  119  A    between atoms: _291  and  _292
REMARK  120  A    between atoms: _297  and  _298
REMARK                            x       y       z     vdW  Elec       q    Type
REMARK                         _______ _______ _______ _____ _____    ______ ____
ROOT
ATOM      1  O   HOH     1       7.363  54.129  49.344  0.00  0.00    +0.000 OA
ENDROOT
TORSDOF 0
REMARK  Name = ../refined-set-2016/1j14/1j14_pocket.pdb
REMARK  120 active torsions:
REMARK  status: ('A' for Active; 'I' for Inactive)
REMARK    1  A    between atoms: _1  and  _5
REMARK    2  A    between atoms: _5  and  _6
REMARK    3  A    between atoms: _5  and  _8
REMARK    4  A    between atoms: _8  and  _9
REMARK    5  A    between atoms: _12  and  _14
REMARK    6  A    between atoms: _14  and  _15
REMARK    7  A    between atoms: _14  and  _17
REMARK    8  A    between atoms: _20  and  _22
REMARK    9  A    between atoms: _22  and  _23
REMARK   10  A    between atoms: _22  and  _25
REMARK   11  A    between atoms: _25  and  _26
REMARK   12  A    between atoms: _31  and  _33
REMARK   13  A    between atoms: _33  and  _34
REMARK   14  A    between atoms: _33  and  _36
REMARK   15  A    between atoms: _36  and  _37
REMARK   16  A    between atoms: _42  and  _43
REMARK   17  A    between atoms: _45  and  _47
REMARK   18  A    between atoms: _47  and  _48
REMARK   19  A    between atoms: _47  and  _50
REMARK   20  A    between atoms: _50  and  _51
REMARK   21  A    between atoms: _54  and  _56
REMARK   22  A    between atoms: _56  and  _57
REMARK   23  A    between atoms: _56  and  _59
REMARK   24  A    between atoms: _59  and  _60
REMARK   25  A    between atoms: _65  and  _67
REMARK   26  A    between atoms: _67  and  _68
REMARK   27  A    between atoms: _67  and  _70
REMARK   28  A    between atoms: _70  and  _71
REMARK   29  A    between atoms: _76  and  _77
REMARK   30  A    between atoms: _79  and  _81
REMARK   31  A    between atoms: _81  and  _82
REMARK   32  A    between atoms: _81  and  _84
REMARK   33  A    between atoms: _87  and  _89
REMARK   34  A    between atoms: _89  and  _90
REMARK   35  A    between atoms: _89  and  _92
REMARK   36  A    between atoms: _92  and  _93
REMARK   37  A    between atoms: _93  and  _94
REMARK   38  A    between atoms: _94  and  _95
REMARK   39  A    between atoms: _95  and  _96
REMARK   40  A    between atoms: _100  and  _102
REMARK   41  A    between atoms: _102  and  _103
REMARK   42  A    between atoms: _102  and  _105
REMARK   43  A    between atoms: _105  and  _106
REMARK   44  A    between atoms: _109  and  _111
REMARK   45  A    between atoms: _111  and  _112
REMARK   46  A    between atoms: _111  and  _114
REMARK   47  A    between atoms: _114  and  _115
REMARK   48  A    between atoms: _117  and  _119
REMARK   49  A    between atoms: _119  and  _120
REMARK   50  A    between atoms: _119  and  _122
REMARK   51  A    between atoms: _122  and  _123
REMARK   52  A    between atoms: _123  and  _239
REMARK   53  A    between atoms: _124  and  _126
REMARK   54  A    between atoms: _126  and  _127
REMARK   55  A    between atoms: _126  and  _129
REMARK   56  A    between atoms: _129  and  _130
REMARK   57  A    between atoms: _130  and  _131
REMARK   58  A    between atoms: _136  and  _138
REMARK   59  A    between atoms: _138  and  _139
REMARK   60  A    between atoms: _141  and  _143
REMARK   61  A    between atoms: _143  and  _144
REMARK   62  A    between atoms: _143  and  _146
REMARK   63  A    between atoms: _146  and  _147
REMARK   64  A    between atoms: _150  and  _152
REMARK   65  A    between atoms: _152  and  _153
REMARK   66  A    between atoms: _152  and  _155
REMARK   67  A    between atoms: _155  and  _156
REMARK   68  A    between atoms: _158  and  _160
REMARK   69  A    between atoms: _160  and  _161
REMARK   70  A    between atoms: _163  and  _165
REMARK   71  A    between atoms: _165  and  _166
REMARK   72  A    between atoms: _168  and  _170
REMARK   73  A    between atoms: _170  and  _171
REMARK   74  A    between atoms: _170  and  _173
REMARK   75  A    between atoms: _173  and  _174
REMARK   76  A    between atoms: _177  and  _179
REMARK   77  A    between atoms: _179  and  _180
REMARK   78  A    between atoms: _179  and  _182
REMARK   79  A    between atoms: _185  and  _187
REMARK   80  A    between atoms: _187  and  _188
REMARK   81  A    between atoms: _187  and  _190
REMARK   82  A    between atoms: _190  and  _191
REMARK   83  A    between atoms: _193  and  _195
REMARK   84  A    between atoms: _195  and  _196
REMARK   85  A    between atoms: _195  and  _198
REMARK   86  A    between atoms: _198  and  _199
REMARK   87  A    between atoms: _209  and  _211
REMARK   88  A    between atoms: _211  and  _212
REMARK   89  A    between atoms: _214  and  _216
REMARK   90  A    between atoms: _216  and  _217
REMARK   91  A    between atoms: _216  and  _219
REMARK   92  A    between atoms: _219  and  _220
REMARK   93  A    between atoms: _225  and  _226
REMARK   94  A    between atoms: _228  and  _230
REMARK   95  A    between atoms: _230  and  _231
REMARK   96  A    between atoms: _233  and  _235
REMARK   97  A    between atoms: _235  and  _236
REMARK   98  A    between atoms: _235  and  _238
REMARK   99  A    between atoms: _238  and  _239
REMARK  100  A    between atoms: _240  and  _242
REMARK  101  A    between atoms: _242  and  _243
REMARK  102  A    between atoms: _246  and  _248
REMARK  103  A    between atoms: _248  and  _249
REMARK  104  A    between atoms: _248  and  _251
REMARK  105  A    between atoms: _251  and  _252
REMARK  106  A    between atoms: _255  and  _257
REMARK  107  A    between atoms: _257  and  _258
REMARK  108  A    between atoms: _257  and  _260
REMARK  109  A    between atoms: _260  and  _261
REMARK  110  A    between atoms: _267  and  _268
REMARK  111  A    between atoms: _273  and  _275
REMARK  112  A    between atoms: _275  and  _276
REMARK  113  A    between atoms: _278  and  _280
REMARK  114  A    between atoms: _280  and  _281
REMARK  115  A    between atoms: _280  and  _283
REMARK  116  A    between atoms: _286  and  _288
REMARK  117  A    between atoms: _288  and  _289
REMARK  118  A    between atoms: _288  and  _291
REMARK  119  A    between atoms: _291  and  _292
REMARK  120  A    between atoms: _297  and  _298
REMARK                            x       y       z     vdW  Elec       q    Type
REMARK                         _______ _______ _______ _____ _____    ______ ____
ROOT
ATOM      1  O   HOH     1       6.078  56.562  56.593  0.00  0.00    +0.000 OA
ENDROOT
TORSDOF 0
REMARK  Name = ../refined-set-2016/1j14/1j14_pocket.pdb
REMARK  120 active torsions:
REMARK  status: ('A' for Active; 'I' for Inactive)
REMARK    1  A    between atoms: _1  and  _5
REMARK    2  A    between atoms: _5  and  _6
REMARK    3  A    between atoms: _5  and  _8
REMARK    4  A    between atoms: _8  and  _9
REMARK    5  A    between atoms: _12  and  _14
REMARK    6  A    between atoms: _14  and  _15
REMARK    7  A    between atoms: _14  and  _17
REMARK    8  A    between atoms: _20  and  _22
REMARK    9  A    between atoms: _22  and  _23
REMARK   10  A    between atoms: _22  and  _25
REMARK   11  A    between atoms: _25  and  _26
REMARK   12  A    between atoms: _31  and  _33
REMARK   13  A    between atoms: _33  and  _34
REMARK   14  A    between atoms: _33  and  _36
REMARK   15  A    between atoms: _36  and  _37
REMARK   16  A    between atoms: _42  and  _43
REMARK   17  A    between atoms: _45  and  _47
REMARK   18  A    between atoms: _47  and  _48
REMARK   19  A    between atoms: _47  and  _50
REMARK   20  A    between atoms: _50  and  _51
REMARK   21  A    between atoms: _54  and  _56
REMARK   22  A    between atoms: _56  and  _57
REMARK   23  A    between atoms: _56  and  _59
REMARK   24  A    between atoms: _59  and  _60
REMARK   25  A    between atoms: _65  and  _67
REMARK   26  A    between atoms: _67  and  _68
REMARK   27  A    between atoms: _67  and  _70
REMARK   28  A    between atoms: _70  and  _71
REMARK   29  A    between atoms: _76  and  _77
REMARK   30  A    between atoms: _79  and  _81
REMARK   31  A    between atoms: _81  and  _82
REMARK   32  A    between atoms: _81  and  _84
REMARK   33  A    between atoms: _87  and  _89
REMARK   34  A    between atoms: _89  and  _90
REMARK   35  A    between atoms: _89  and  _92
REMARK   36  A    between atoms: _92  and  _93
REMARK   37  A    between atoms: _93  and  _94
REMARK   38  A    between atoms: _94  and  _95
REMARK   39  A    between atoms: _95  and  _96
REMARK   40  A    between atoms: _100  and  _102
REMARK   41  A    between atoms: _102  and  _103
REMARK   42  A    between atoms: _102  and  _105
REMARK   43  A    between atoms: _105  and  _106
REMARK   44  A    between atoms: _109  and  _111
REMARK   45  A    between atoms: _111  and  _112
REMARK   46  A    between atoms: _111  and  _114
REMARK   47  A    between atoms: _114  and  _115
REMARK   48  A    between atoms: _117  and  _119
REMARK   49  A    between atoms: _119  and  _120
REMARK   50  A    between atoms: _119  and  _122
REMARK   51  A    between atoms: _122  and  _123
REMARK   52  A    between atoms: _123  and  _239
REMARK   53  A    between atoms: _124  and  _126
REMARK   54  A    between atoms: _126  and  _127
REMARK   55  A    between atoms: _126  and  _129
REMARK   56  A    between atoms: _129  and  _130
REMARK   57  A    between atoms: _130  and  _131
REMARK   58  A    between atoms: _136  and  _138
REMARK   59  A    between atoms: _138  and  _139
REMARK   60  A    between atoms: _141  and  _143
REMARK   61  A    between atoms: _143  and  _144
REMARK   62  A    between atoms: _143  and  _146
REMARK   63  A    between atoms: _146  and  _147
REMARK   64  A    between atoms: _150  and  _152
REMARK   65  A    between atoms: _152  and  _153
REMARK   66  A    between atoms: _152  and  _155
REMARK   67  A    between atoms: _155  and  _156
REMARK   68  A    between atoms: _158  and  _160
REMARK   69  A    between atoms: _160  and  _161
REMARK   70  A    between atoms: _163  and  _165
REMARK   71  A    between atoms: _165  and  _166
REMARK   72  A    between atoms: _168  and  _170
REMARK   73  A    between atoms: _170  and  _171
REMARK   74  A    between atoms: _170  and  _173
REMARK   75  A    between atoms: _173  and  _174
REMARK   76  A    between atoms: _177  and  _179
REMARK   77  A    between atoms: _179  and  _180
REMARK   78  A    between atoms: _179  and  _182
REMARK   79  A    between atoms: _185  and  _187
REMARK   80  A    between atoms: _187  and  _188
REMARK   81  A    between atoms: _187  and  _190
REMARK   82  A    between atoms: _190  and  _191
REMARK   83  A    between atoms: _193  and  _195
REMARK   84  A    between atoms: _195  and  _196
REMARK   85  A    between atoms: _195  and  _198
REMARK   86  A    between atoms: _198  and  _199
REMARK   87  A    between atoms: _209  and  _211
REMARK   88  A    between atoms: _211  and  _212
REMARK   89  A    between atoms: _214  and  _216
REMARK   90  A    between atoms: _216  and  _217
REMARK   91  A    between atoms: _216  and  _219
REMARK   92  A    between atoms: _219  and  _220
REMARK   93  A    between atoms: _225  and  _226
REMARK   94  A    between atoms: _228  and  _230
REMARK   95  A    between atoms: _230  and  _231
REMARK   96  A    between atoms: _233  and  _235
REMARK   97  A    between atoms: _235  and  _236
REMARK   98  A    between atoms: _235  and  _238
REMARK   99  A    between atoms: _238  and  _239
REMARK  100  A    between atoms: _240  and  _242
REMARK  101  A    between atoms: _242  and  _243
REMARK  102  A    between atoms: _246  and  _248
REMARK  103  A    between atoms: _248  and  _249
REMARK  104  A    between atoms: _248  and  _251
REMARK  105  A    between atoms: _251  and  _252
REMARK  106  A    between atoms: _255  and  _257
REMARK  107  A    between atoms: _257  and  _258
REMARK  108  A    between atoms: _257  and  _260
REMARK  109  A    between atoms: _260  and  _261
REMARK  110  A    between atoms: _267  and  _268
REMARK  111  A    between atoms: _273  and  _275
REMARK  112  A    between atoms: _275  and  _276
REMARK  113  A    between atoms: _278  and  _280
REMARK  114  A    between atoms: _280  and  _281
REMARK  115  A    between atoms: _280  and  _283
REMARK  116  A    between atoms: _286  and  _288
REMARK  117  A    between atoms: _288  and  _289
REMARK  118  A    between atoms: _288  and  _291
REMARK  119  A    between atoms: _291  and  _292
REMARK  120  A    between atoms: _297  and  _298
REMARK                            x       y       z     vdW  Elec       q    Type
REMARK                         _______ _______ _______ _____ _____    ______ ____
ROOT
ATOM      1  O   HOH     1      10.086  49.944  52.228  0.00  0.00    +0.000 OA
ENDROOT
TORSDOF 0
REMARK  Name = ../refined-set-2016/1j14/1j14_pocket.pdb
REMARK  120 active torsions:
REMARK  status: ('A' for Active; 'I' for Inactive)
REMARK    1  A    between atoms: _1  and  _5
REMARK    2  A    between atoms: _5  and  _6
REMARK    3  A    between atoms: _5  and  _8
REMARK    4  A    between atoms: _8  and  _9
REMARK    5  A    between atoms: _12  and  _14
REMARK    6  A    between atoms: _14  and  _15
REMARK    7  A    between atoms: _14  and  _17
REMARK    8  A    between atoms: _20  and  _22
REMARK    9  A    between atoms: _22  and  _23
REMARK   10  A    between atoms: _22  and  _25
REMARK   11  A    between atoms: _25  and  _26
REMARK   12  A    between atoms: _31  and  _33
REMARK   13  A    between atoms: _33  and  _34
REMARK   14  A    between atoms: _33  and  _36
REMARK   15  A    between atoms: _36  and  _37
REMARK   16  A    between atoms: _42  and  _43
REMARK   17  A    between atoms: _45  and  _47
REMARK   18  A    between atoms: _47  and  _48
REMARK   19  A    between atoms: _47  and  _50
REMARK   20  A    between atoms: _50  and  _51
REMARK   21  A    between atoms: _54  and  _56
REMARK   22  A    between atoms: _56  and  _57
REMARK   23  A    between atoms: _56  and  _59
REMARK   24  A    between atoms: _59  and  _60
REMARK   25  A    between atoms: _65  and  _67
REMARK   26  A    between atoms: _67  and  _68
REMARK   27  A    between atoms: _67  and  _70
REMARK   28  A    between atoms: _70  and  _71
REMARK   29  A    between atoms: _76  and  _77
REMARK   30  A    between atoms: _79  and  _81
REMARK   31  A    between atoms: _81  and  _82
REMARK   32  A    between atoms: _81  and  _84
REMARK   33  A    between atoms: _87  and  _89
REMARK   34  A    between atoms: _89  and  _90
REMARK   35  A    between atoms: _89  and  _92
REMARK   36  A    between atoms: _92  and  _93
REMARK   37  A    between atoms: _93  and  _94
REMARK   38  A    between atoms: _94  and  _95
REMARK   39  A    between atoms: _95  and  _96
REMARK   40  A    between atoms: _100  and  _102
REMARK   41  A    between atoms: _102  and  _103
REMARK   42  A    between atoms: _102  and  _105
REMARK   43  A    between atoms: _105  and  _106
REMARK   44  A    between atoms: _109  and  _111
REMARK   45  A    between atoms: _111  and  _112
REMARK   46  A    between atoms: _111  and  _114
REMARK   47  A    between atoms: _114  and  _115
REMARK   48  A    between atoms: _117  and  _119
REMARK   49  A    between atoms: _119  and  _120
REMARK   50  A    between atoms: _119  and  _122
REMARK   51  A    between atoms: _122  and  _123
REMARK   52  A    between atoms: _123  and  _239
REMARK   53  A    between atoms: _124  and  _126
REMARK   54  A    between atoms: _126  and  _127
REMARK   55  A    between atoms: _126  and  _129
REMARK   56  A    between atoms: _129  and  _130
REMARK   57  A    between atoms: _130  and  _131
REMARK   58  A    between atoms: _136  and  _138
REMARK   59  A    between atoms: _138  and  _139
REMARK   60  A    between atoms: _141  and  _143
REMARK   61  A    between atoms: _143  and  _144
REMARK   62  A    between atoms: _143  and  _146
REMARK   63  A    between atoms: _146  and  _147
REMARK   64  A    between atoms: _150  and  _152
REMARK   65  A    between atoms: _152  and  _153
REMARK   66  A    between atoms: _152  and  _155
REMARK   67  A    between atoms: _155  and  _156
REMARK   68  A    between atoms: _158  and  _160
REMARK   69  A    between atoms: _160  and  _161
REMARK   70  A    between atoms: _163  and  _165
REMARK   71  A    between atoms: _165  and  _166
REMARK   72  A    between atoms: _168  and  _170
REMARK   73  A    between atoms: _170  and  _171
REMARK   74  A    between atoms: _170  and  _173
REMARK   75  A    between atoms: _173  and  _174
REMARK   76  A    between atoms: _177  and  _179
REMARK   77  A    between atoms: _179  and  _180
REMARK   78  A    between atoms: _179  and  _182
REMARK   79  A    between atoms: _185  and  _187
REMARK   80  A    between atoms: _187  and  _188
REMARK   81  A    between atoms: _187  and  _190
REMARK   82  A    between atoms: _190  and  _191
REMARK   83  A    between atoms: _193  and  _195
REMARK   84  A    between atoms: _195  and  _196
REMARK   85  A    between atoms: _195  and  _198
REMARK   86  A    between atoms: _198  and  _199
REMARK   87  A    between atoms: _209  and  _211
REMARK   88  A    between atoms: _211  and  _212
REMARK   89  A    between atoms: _214  and  _216
REMARK   90  A    between atoms: _216  and  _217
REMARK   91  A    between atoms: _216  and  _219
REMARK   92  A    between atoms: _219  and  _220
REMARK   93  A    between atoms: _225  and  _226
REMARK   94  A    between atoms: _228  and  _230
REMARK   95  A    between atoms: _230  and  _231
REMARK   96  A    between atoms: _233  and  _235
REMARK   97  A    between atoms: _235  and  _236
REMARK   98  A    between atoms: _235  and  _238
REMARK   99  A    between atoms: _238  and  _239
REMARK  100  A    between atoms: _240  and  _242
REMARK  101  A    between atoms: _242  and  _243
REMARK  102  A    between atoms: _246  and  _248
REMARK  103  A    between atoms: _248  and  _249
REMARK  104  A    between atoms: _248  and  _251
REMARK  105  A    between atoms: _251  and  _252
REMARK  106  A    between atoms: _255  and  _257
REMARK  107  A    between atoms: _257  and  _258
REMARK  108  A    between atoms: _257  and  _260
REMARK  109  A    between atoms: _260  and  _261
REMARK  110  A    between atoms: _267  and  _268
REMARK  111  A    between atoms: _273  and  _275
REMARK  112  A    between atoms: _275  and  _276
REMARK  113  A    between atoms: _278  and  _280
REMARK  114  A    between atoms: _280  and  _281
REMARK  115  A    between atoms: _280  and  _283
REMARK  116  A    between atoms: _286  and  _288
REMARK  117  A    between atoms: _288  and  _289
REMARK  118  A    between atoms: _288  and  _291
REMARK  119  A    between atoms: _291  and  _292
REMARK  120  A    between atoms: _297  and  _298
REMARK                            x       y       z     vdW  Elec       q    Type
REMARK                         _______ _______ _______ _____ _____    ______ ____
ROOT
ATOM      1  O   HOH     1       6.551  57.421  50.654  0.00  0.00    +0.000 OA
ENDROOT
TORSDOF 0
REMARK  Name = ../refined-set-2016/1j14/1j14_pocket.pdb
REMARK  120 active torsions:
REMARK  status: ('A' for Active; 'I' for Inactive)
REMARK    1  A    between atoms: _1  and  _5
REMARK    2  A    between atoms: _5  and  _6
REMARK    3  A    between atoms: _5  and  _8
REMARK    4  A    between atoms: _8  and  _9
REMARK    5  A    between atoms: _12  and  _14
REMARK    6  A    between atoms: _14  and  _15
REMARK    7  A    between atoms: _14  and  _17
REMARK    8  A    between atoms: _20  and  _22
REMARK    9  A    between atoms: _22  and  _23
REMARK   10  A    between atoms: _22  and  _25
REMARK   11  A    between atoms: _25  and  _26
REMARK   12  A    between atoms: _31  and  _33
REMARK   13  A    between atoms: _33  and  _34
REMARK   14  A    between atoms: _33  and  _36
REMARK   15  A    between atoms: _36  and  _37
REMARK   16  A    between atoms: _42  and  _43
REMARK   17  A    between atoms: _45  and  _47
REMARK   18  A    between atoms: _47  and  _48
REMARK   19  A    between atoms: _47  and  _50
REMARK   20  A    between atoms: _50  and  _51
REMARK   21  A    between atoms: _54  and  _56
REMARK   22  A    between atoms: _56  and  _57
REMARK   23  A    between atoms: _56  and  _59
REMARK   24  A    between atoms: _59  and  _60
REMARK   25  A    between atoms: _65  and  _67
REMARK   26  A    between atoms: _67  and  _68
REMARK   27  A    between atoms: _67  and  _70
REMARK   28  A    between atoms: _70  and  _71
REMARK   29  A    between atoms: _76  and  _77
REMARK   30  A    between atoms: _79  and  _81
REMARK   31  A    between atoms: _81  and  _82
REMARK   32  A    between atoms: _81  and  _84
REMARK   33  A    between atoms: _87  and  _89
REMARK   34  A    between atoms: _89  and  _90
REMARK   35  A    between atoms: _89  and  _92
REMARK   36  A    between atoms: _92  and  _93
REMARK   37  A    between atoms: _93  and  _94
REMARK   38  A    between atoms: _94  and  _95
REMARK   39  A    between atoms: _95  and  _96
REMARK   40  A    between atoms: _100  and  _102
REMARK   41  A    between atoms: _102  and  _103
REMARK   42  A    between atoms: _102  and  _105
REMARK   43  A    between atoms: _105  and  _106
REMARK   44  A    between atoms: _109  and  _111
REMARK   45  A    between atoms: _111  and  _112
REMARK   46  A    between atoms: _111  and  _114
REMARK   47  A    between atoms: _114  and  _115
REMARK   48  A    between atoms: _117  and  _119
REMARK   49  A    between atoms: _119  and  _120
REMARK   50  A    between atoms: _119  and  _122
REMARK   51  A    between atoms: _122  and  _123
REMARK   52  A    between atoms: _123  and  _239
REMARK   53  A    between atoms: _124  and  _126
REMARK   54  A    between atoms: _126  and  _127
REMARK   55  A    between atoms: _126  and  _129
REMARK   56  A    between atoms: _129  and  _130
REMARK   57  A    between atoms: _130  and  _131
REMARK   58  A    between atoms: _136  and  _138
REMARK   59  A    between atoms: _138  and  _139
REMARK   60  A    between atoms: _141  and  _143
REMARK   61  A    between atoms: _143  and  _144
REMARK   62  A    between atoms: _143  and  _146
REMARK   63  A    between atoms: _146  and  _147
REMARK   64  A    between atoms: _150  and  _152
REMARK   65  A    between atoms: _152  and  _153
REMARK   66  A    between atoms: _152  and  _155
REMARK   67  A    between atoms: _155  and  _156
REMARK   68  A    between atoms: _158  and  _160
REMARK   69  A    between atoms: _160  and  _161
REMARK   70  A    between atoms: _163  and  _165
REMARK   71  A    between atoms: _165  and  _166
REMARK   72  A    between atoms: _168  and  _170
REMARK   73  A    between atoms: _170  and  _171
REMARK   74  A    between atoms: _170  and  _173
REMARK   75  A    between atoms: _173  and  _174
REMARK   76  A    between atoms: _177  and  _179
REMARK   77  A    between atoms: _179  and  _180
REMARK   78  A    between atoms: _179  and  _182
REMARK   79  A    between atoms: _185  and  _187
REMARK   80  A    between atoms: _187  and  _188
REMARK   81  A    between atoms: _187  and  _190
REMARK   82  A    between atoms: _190  and  _191
REMARK   83  A    between atoms: _193  and  _195
REMARK   84  A    between atoms: _195  and  _196
REMARK   85  A    between atoms: _195  and  _198
REMARK   86  A    between atoms: _198  and  _199
REMARK   87  A    between atoms: _209  and  _211
REMARK   88  A    between atoms: _211  and  _212
REMARK   89  A    between atoms: _214  and  _216
REMARK   90  A    between atoms: _216  and  _217
REMARK   91  A    between atoms: _216  and  _219
REMARK   92  A    between atoms: _219  and  _220
REMARK   93  A    between atoms: _225  and  _226
REMARK   94  A    between atoms: _228  and  _230
REMARK   95  A    between atoms: _230  and  _231
REMARK   96  A    between atoms: _233  and  _235
REMARK   97  A    between atoms: _235  and  _236
REMARK   98  A    between atoms: _235  and  _238
REMARK   99  A    between atoms: _238  and  _239
REMARK  100  A    between atoms: _240  and  _242
REMARK  101  A    between atoms: _242  and  _243
REMARK  102  A    between atoms: _246  and  _248
REMARK  103  A    between atoms: _248  and  _249
REMARK  104  A    between atoms: _248  and  _251
REMARK  105  A    between atoms: _251  and  _252
REMARK  106  A    between atoms: _255  and  _257
REMARK  107  A    between atoms: _257  and  _258
REMARK  108  A    between atoms: _257  and  _260
REMARK  109  A    between atoms: _260  and  _261
REMARK  110  A    between atoms: _267  and  _268
REMARK  111  A    between atoms: _273  and  _275
REMARK  112  A    between atoms: _275  and  _276
REMARK  113  A    between atoms: _278  and  _280
REMARK  114  A    between atoms: _280  and  _281
REMARK  115  A    between atoms: _280  and  _283
REMARK  116  A    between atoms: _286  and  _288
REMARK  117  A    between atoms: _288  and  _289
REMARK  118  A    between atoms: _288  and  _291
REMARK  119  A    between atoms: _291  and  _292
REMARK  120  A    between atoms: _297  and  _298
REMARK                            x       y       z     vdW  Elec       q    Type
REMARK                         _______ _______ _______ _____ _____    ______ ____
ROOT
ATOM      1  O   HOH     1      10.803  49.341  60.032  0.00  0.00    +0.000 OA
ENDROOT
TORSDOF 0
REMARK  Name = ../refined-set-2016/1j14/1j14_pocket.pdb
REMARK  120 active torsions:
REMARK  status: ('A' for Active; 'I' for Inactive)
REMARK    1  A    between atoms: _1  and  _5
REMARK    2  A    between atoms: _5  and  _6
REMARK    3  A    between atoms: _5  and  _8
REMARK    4  A    between atoms: _8  and  _9
REMARK    5  A    between atoms: _12  and  _14
REMARK    6  A    between atoms: _14  and  _15
REMARK    7  A    between atoms: _14  and  _17
REMARK    8  A    between atoms: _20  and  _22
REMARK    9  A    between atoms: _22  and  _23
REMARK   10  A    between atoms: _22  and  _25
REMARK   11  A    between atoms: _25  and  _26
REMARK   12  A    between atoms: _31  and  _33
REMARK   13  A    between atoms: _33  and  _34
REMARK   14  A    between atoms: _33  and  _36
REMARK   15  A    between atoms: _36  and  _37
REMARK   16  A    between atoms: _42  and  _43
REMARK   17  A    between atoms: _45  and  _47
REMARK   18  A    between atoms: _47  and  _48
REMARK   19  A    between atoms: _47  and  _50
REMARK   20  A    between atoms: _50  and  _51
REMARK   21  A    between atoms: _54  and  _56
REMARK   22  A    between atoms: _56  and  _57
REMARK   23  A    between atoms: _56  and  _59
REMARK   24  A    between atoms: _59  and  _60
REMARK   25  A    between atoms: _65  and  _67
REMARK   26  A    between atoms: _67  and  _68
REMARK   27  A    between atoms: _67  and  _70
REMARK   28  A    between atoms: _70  and  _71
REMARK   29  A    between atoms: _76  and  _77
REMARK   30  A    between atoms: _79  and  _81
REMARK   31  A    between atoms: _81  and  _82
REMARK   32  A    between atoms: _81  and  _84
REMARK   33  A    between atoms: _87  and  _89
REMARK   34  A    between atoms: _89  and  _90
REMARK   35  A    between atoms: _89  and  _92
REMARK   36  A    between atoms: _92  and  _93
REMARK   37  A    between atoms: _93  and  _94
REMARK   38  A    between atoms: _94  and  _95
REMARK   39  A    between atoms: _95  and  _96
REMARK   40  A    between atoms: _100  and  _102
REMARK   41  A    between atoms: _102  and  _103
REMARK   42  A    between atoms: _102  and  _105
REMARK   43  A    between atoms: _105  and  _106
REMARK   44  A    between atoms: _109  and  _111
REMARK   45  A    between atoms: _111  and  _112
REMARK   46  A    between atoms: _111  and  _114
REMARK   47  A    between atoms: _114  and  _115
REMARK   48  A    between atoms: _117  and  _119
REMARK   49  A    between atoms: _119  and  _120
REMARK   50  A    between atoms: _119  and  _122
REMARK   51  A    between atoms: _122  and  _123
REMARK   52  A    between atoms: _123  and  _239
REMARK   53  A    between atoms: _124  and  _126
REMARK   54  A    between atoms: _126  and  _127
REMARK   55  A    between atoms: _126  and  _129
REMARK   56  A    between atoms: _129  and  _130
REMARK   57  A    between atoms: _130  and  _131
REMARK   58  A    between atoms: _136  and  _138
REMARK   59  A    between atoms: _138  and  _139
REMARK   60  A    between atoms: _141  and  _143
REMARK   61  A    between atoms: _143  and  _144
REMARK   62  A    between atoms: _143  and  _146
REMARK   63  A    between atoms: _146  and  _147
REMARK   64  A    between atoms: _150  and  _152
REMARK   65  A    between atoms: _152  and  _153
REMARK   66  A    between atoms: _152  and  _155
REMARK   67  A    between atoms: _155  and  _156
REMARK   68  A    between atoms: _158  and  _160
REMARK   69  A    between atoms: _160  and  _161
REMARK   70  A    between atoms: _163  and  _165
REMARK   71  A    between atoms: _165  and  _166
REMARK   72  A    between atoms: _168  and  _170
REMARK   73  A    between atoms: _170  and  _171
REMARK   74  A    between atoms: _170  and  _173
REMARK   75  A    between atoms: _173  and  _174
REMARK   76  A    between atoms: _177  and  _179
REMARK   77  A    between atoms: _179  and  _180
REMARK   78  A    between atoms: _179  and  _182
REMARK   79  A    between atoms: _185  and  _187
REMARK   80  A    between atoms: _187  and  _188
REMARK   81  A    between atoms: _187  and  _190
REMARK   82  A    between atoms: _190  and  _191
REMARK   83  A    between atoms: _193  and  _195
REMARK   84  A    between atoms: _195  and  _196
REMARK   85  A    between atoms: _195  and  _198
REMARK   86  A    between atoms: _198  and  _199
REMARK   87  A    between atoms: _209  and  _211
REMARK   88  A    between atoms: _211  and  _212
REMARK   89  A    between atoms: _214  and  _216
REMARK   90  A    between atoms: _216  and  _217
REMARK   91  A    between atoms: _216  and  _219
REMARK   92  A    between atoms: _219  and  _220
REMARK   93  A    between atoms: _225  and  _226
REMARK   94  A    between atoms: _228  and  _230
REMARK   95  A    between atoms: _230  and  _231
REMARK   96  A    between atoms: _233  and  _235
REMARK   97  A    between atoms: _235  and  _236
REMARK   98  A    between atoms: _235  and  _238
REMARK   99  A    between atoms: _238  and  _239
REMARK  100  A    between atoms: _240  and  _242
REMARK  101  A    between atoms: _242  and  _243
REMARK  102  A    between atoms: _246  and  _248
REMARK  103  A    between atoms: _248  and  _249
REMARK  104  A    between atoms: _248  and  _251
REMARK  105  A    between atoms: _251  and  _252
REMARK  106  A    between atoms: _255  and  _257
REMARK  107  A    between atoms: _257  and  _258
REMARK  108  A    between atoms: _257  and  _260
REMARK  109  A    between atoms: _260  and  _261
REMARK  110  A    between atoms: _267  and  _268
REMARK  111  A    between atoms: _273  and  _275
REMARK  112  A    between atoms: _275  and  _276
REMARK  113  A    between atoms: _278  and  _280
REMARK  114  A    between atoms: _280  and  _281
REMARK  115  A    between atoms: _280  and  _283
REMARK  116  A    between atoms: _286  and  _288
REMARK  117  A    between atoms: _288  and  _289
REMARK  118  A    between atoms: _288  and  _291
REMARK  119  A    between atoms: _291  and  _292
REMARK  120  A    between atoms: _297  and  _298
REMARK                            x       y       z     vdW  Elec       q    Type
REMARK                         _______ _______ _______ _____ _____    ______ ____
ROOT
ATOM      1  O   HOH     1      10.513  46.358  58.263  0.00  0.00    +0.000 OA
ENDROOT
TORSDOF 0
REMARK  Name = ../refined-set-2016/1j14/1j14_pocket.pdb
REMARK  120 active torsions:
REMARK  status: ('A' for Active; 'I' for Inactive)
REMARK    1  A    between atoms: _1  and  _5
REMARK    2  A    between atoms: _5  and  _6
REMARK    3  A    between atoms: _5  and  _8
REMARK    4  A    between atoms: _8  and  _9
REMARK    5  A    between atoms: _12  and  _14
REMARK    6  A    between atoms: _14  and  _15
REMARK    7  A    between atoms: _14  and  _17
REMARK    8  A    between atoms: _20  and  _22
REMARK    9  A    between atoms: _22  and  _23
REMARK   10  A    between atoms: _22  and  _25
REMARK   11  A    between atoms: _25  and  _26
REMARK   12  A    between atoms: _31  and  _33
REMARK   13  A    between atoms: _33  and  _34
REMARK   14  A    between atoms: _33  and  _36
REMARK   15  A    between atoms: _36  and  _37
REMARK   16  A    between atoms: _42  and  _43
REMARK   17  A    between atoms: _45  and  _47
REMARK   18  A    between atoms: _47  and  _48
REMARK   19  A    between atoms: _47  and  _50
REMARK   20  A    between atoms: _50  and  _51
REMARK   21  A    between atoms: _54  and  _56
REMARK   22  A    between atoms: _56  and  _57
REMARK   23  A    between atoms: _56  and  _59
REMARK   24  A    between atoms: _59  and  _60
REMARK   25  A    between atoms: _65  and  _67
REMARK   26  A    between atoms: _67  and  _68
REMARK   27  A    between atoms: _67  and  _70
REMARK   28  A    between atoms: _70  and  _71
REMARK   29  A    between atoms: _76  and  _77
REMARK   30  A    between atoms: _79  and  _81
REMARK   31  A    between atoms: _81  and  _82
REMARK   32  A    between atoms: _81  and  _84
REMARK   33  A    between atoms: _87  and  _89
REMARK   34  A    between atoms: _89  and  _90
REMARK   35  A    between atoms: _89  and  _92
REMARK   36  A    between atoms: _92  and  _93
REMARK   37  A    between atoms: _93  and  _94
REMARK   38  A    between atoms: _94  and  _95
REMARK   39  A    between atoms: _95  and  _96
REMARK   40  A    between atoms: _100  and  _102
REMARK   41  A    between atoms: _102  and  _103
REMARK   42  A    between atoms: _102  and  _105
REMARK   43  A    between atoms: _105  and  _106
REMARK   44  A    between atoms: _109  and  _111
REMARK   45  A    between atoms: _111  and  _112
REMARK   46  A    between atoms: _111  and  _114
REMARK   47  A    between atoms: _114  and  _115
REMARK   48  A    between atoms: _117  and  _119
REMARK   49  A    between atoms: _119  and  _120
REMARK   50  A    between atoms: _119  and  _122
REMARK   51  A    between atoms: _122  and  _123
REMARK   52  A    between atoms: _123  and  _239
REMARK   53  A    between atoms: _124  and  _126
REMARK   54  A    between atoms: _126  and  _127
REMARK   55  A    between atoms: _126  and  _129
REMARK   56  A    between atoms: _129  and  _130
REMARK   57  A    between atoms: _130  and  _131
REMARK   58  A    between atoms: _136  and  _138
REMARK   59  A    between atoms: _138  and  _139
REMARK   60  A    between atoms: _141  and  _143
REMARK   61  A    between atoms: _143  and  _144
REMARK   62  A    between atoms: _143  and  _146
REMARK   63  A    between atoms: _146  and  _147
REMARK   64  A    between atoms: _150  and  _152
REMARK   65  A    between atoms: _152  and  _153
REMARK   66  A    between atoms: _152  and  _155
REMARK   67  A    between atoms: _155  and  _156
REMARK   68  A    between atoms: _158  and  _160
REMARK   69  A    between atoms: _160  and  _161
REMARK   70  A    between atoms: _163  and  _165
REMARK   71  A    between atoms: _165  and  _166
REMARK   72  A    between atoms: _168  and  _170
REMARK   73  A    between atoms: _170  and  _171
REMARK   74  A    between atoms: _170  and  _173
REMARK   75  A    between atoms: _173  and  _174
REMARK   76  A    between atoms: _177  and  _179
REMARK   77  A    between atoms: _179  and  _180
REMARK   78  A    between atoms: _179  and  _182
REMARK   79  A    between atoms: _185  and  _187
REMARK   80  A    between atoms: _187  and  _188
REMARK   81  A    between atoms: _187  and  _190
REMARK   82  A    between atoms: _190  and  _191
REMARK   83  A    between atoms: _193  and  _195
REMARK   84  A    between atoms: _195  and  _196
REMARK   85  A    between atoms: _195  and  _198
REMARK   86  A    between atoms: _198  and  _199
REMARK   87  A    between atoms: _209  and  _211
REMARK   88  A    between atoms: _211  and  _212
REMARK   89  A    between atoms: _214  and  _216
REMARK   90  A    between atoms: _216  and  _217
REMARK   91  A    between atoms: _216  and  _219
REMARK   92  A    between atoms: _219  and  _220
REMARK   93  A    between atoms: _225  and  _226
REMARK   94  A    between atoms: _228  and  _230
REMARK   95  A    between atoms: _230  and  _231
REMARK   96  A    between atoms: _233  and  _235
REMARK   97  A    between atoms: _235  and  _236
REMARK   98  A    between atoms: _235  and  _238
REMARK   99  A    between atoms: _238  and  _239
REMARK  100  A    between atoms: _240  and  _242
REMARK  101  A    between atoms: _242  and  _243
REMARK  102  A    between atoms: _246  and  _248
REMARK  103  A    between atoms: _248  and  _249
REMARK  104  A    between atoms: _248  and  _251
REMARK  105  A    between atoms: _251  and  _252
REMARK  106  A    between atoms: _255  and  _257
REMARK  107  A    between atoms: _257  and  _258
REMARK  108  A    between atoms: _257  and  _260
REMARK  109  A    between atoms: _260  and  _261
REMARK  110  A    between atoms: _267  and  _268
REMARK  111  A    between atoms: _273  and  _275
REMARK  112  A    between atoms: _275  and  _276
REMARK  113  A    between atoms: _278  and  _280
REMARK  114  A    between atoms: _280  and  _281
REMARK  115  A    between atoms: _280  and  _283
REMARK  116  A    between atoms: _286  and  _288
REMARK  117  A    between atoms: _288  and  _289
REMARK  118  A    between atoms: _288  and  _291
REMARK  119  A    between atoms: _291  and  _292
REMARK  120  A    between atoms: _297  and  _298
REMARK                            x       y       z     vdW  Elec       q    Type
REMARK                         _______ _______ _______ _____ _____    ______ ____
ROOT
ATOM      1  O   HOH     1       8.536  52.447  62.835  0.00  0.00    +0.000 OA
ENDROOT
TORSDOF 0
