REMARK  Name = ../refined-set-2016/1v2l/1v2l_pocket.pdb
REMARK  125 active torsions:
REMARK  status: ('A' for Active; 'I' for Inactive)
REMARK    1  A    between atoms: _1  and  _5
REMARK    2  A    between atoms: _5  and  _6
REMARK    3  A    between atoms: _5  and  _8
REMARK    4  A    between atoms: _8  and  _9
REMARK    5  A    between atoms: _12  and  _14
REMARK    6  A    between atoms: _14  and  _15
REMARK    7  A    between atoms: _14  and  _17
REMARK    8  A    between atoms: _20  and  _22
REMARK    9  A    between atoms: _22  and  _23
REMARK   10  A    between atoms: _22  and  _25
REMARK   11  A    between atoms: _25  and  _26
REMARK   12  A    between atoms: _31  and  _33
REMARK   13  A    between atoms: _33  and  _34
REMARK   14  A    between atoms: _33  and  _36
REMARK   15  A    between atoms: _36  and  _37
REMARK   16  A    between atoms: _42  and  _43
REMARK   17  A    between atoms: _45  and  _47
REMARK   18  A    between atoms: _47  and  _48
REMARK   19  A    between atoms: _47  and  _50
REMARK   20  A    between atoms: _50  and  _51
REMARK   21  A    between atoms: _54  and  _56
REMARK   22  A    between atoms: _56  and  _57
REMARK   23  A    between atoms: _56  and  _59
REMARK   24  A    between atoms: _59  and  _60
REMARK   25  A    between atoms: _63  and  _65
REMARK   26  A    between atoms: _65  and  _66
REMARK   27  A    between atoms: _65  and  _68
REMARK   28  A    between atoms: _68  and  _69
REMARK   29  A    between atoms: _74  and  _76
REMARK   30  A    between atoms: _76  and  _77
REMARK   31  A    between atoms: _76  and  _79
REMARK   32  A    between atoms: _79  and  _80
REMARK   33  A    between atoms: _85  and  _86
REMARK   34  A    between atoms: _88  and  _90
REMARK   35  A    between atoms: _90  and  _91
REMARK   36  A    between atoms: _94  and  _96
REMARK   37  A    between atoms: _96  and  _97
REMARK   38  A    between atoms: _96  and  _99
REMARK   39  A    between atoms: _99  and  _100
REMARK   40  A    between atoms: _100  and  _101
REMARK   41  A    between atoms: _101  and  _102
REMARK   42  A    between atoms: _102  and  _103
REMARK   43  A    between atoms: _107  and  _109
REMARK   44  A    between atoms: _109  and  _110
REMARK   45  A    between atoms: _109  and  _112
REMARK   46  A    between atoms: _112  and  _113
REMARK   47  A    between atoms: _116  and  _118
REMARK   48  A    between atoms: _118  and  _119
REMARK   49  A    between atoms: _122  and  _124
REMARK   50  A    between atoms: _124  and  _125
REMARK   51  A    between atoms: _124  and  _127
REMARK   52  A    between atoms: _127  and  _128
REMARK   53  A    between atoms: _128  and  _240
REMARK   54  A    between atoms: _129  and  _131
REMARK   55  A    between atoms: _131  and  _132
REMARK   56  A    between atoms: _131  and  _134
REMARK   57  A    between atoms: _134  and  _135
REMARK   58  A    between atoms: _135  and  _136
REMARK   59  A    between atoms: _141  and  _143
REMARK   60  A    between atoms: _143  and  _144
REMARK   61  A    between atoms: _146  and  _148
REMARK   62  A    between atoms: _148  and  _149
REMARK   63  A    between atoms: _148  and  _151
REMARK   64  A    between atoms: _151  and  _152
REMARK   65  A    between atoms: _155  and  _157
REMARK   66  A    between atoms: _157  and  _158
REMARK   67  A    between atoms: _157  and  _160
REMARK   68  A    between atoms: _160  and  _161
REMARK   69  A    between atoms: _163  and  _165
REMARK   70  A    between atoms: _165  and  _166
REMARK   71  A    between atoms: _168  and  _170
REMARK   72  A    between atoms: _170  and  _171
REMARK   73  A    between atoms: _173  and  _175
REMARK   74  A    between atoms: _175  and  _176
REMARK   75  A    between atoms: _175  and  _178
REMARK   76  A    between atoms: _178  and  _179
REMARK   77  A    between atoms: _182  and  _184
REMARK   78  A    between atoms: _184  and  _185
REMARK   79  A    between atoms: _184  and  _187
REMARK   80  A    between atoms: _190  and  _192
REMARK   81  A    between atoms: _192  and  _193
REMARK   82  A    between atoms: _192  and  _195
REMARK   83  A    between atoms: _195  and  _196
REMARK   84  A    between atoms: _198  and  _200
REMARK   85  A    between atoms: _200  and  _201
REMARK   86  A    between atoms: _200  and  _203
REMARK   87  A    between atoms: _203  and  _204
REMARK   88  A    between atoms: _214  and  _216
REMARK   89  A    between atoms: _216  and  _217
REMARK   90  A    between atoms: _219  and  _221
REMARK   91  A    between atoms: _221  and  _222
REMARK   92  A    between atoms: _221  and  _224
REMARK   93  A    between atoms: _224  and  _225
REMARK   94  A    between atoms: _225  and  _226
REMARK   95  A    between atoms: _229  and  _231
REMARK   96  A    between atoms: _231  and  _232
REMARK   97  A    between atoms: _234  and  _236
REMARK   98  A    between atoms: _236  and  _237
REMARK   99  A    between atoms: _236  and  _239
REMARK  100  A    between atoms: _239  and  _240
REMARK  101  A    between atoms: _241  and  _243
REMARK  102  A    between atoms: _243  and  _244
REMARK  103  A    between atoms: _247  and  _249
REMARK  104  A    between atoms: _249  and  _250
REMARK  105  A    between atoms: _249  and  _252
REMARK  106  A    between atoms: _252  and  _253
REMARK  107  A    between atoms: _253  and  _254
REMARK  108  A    between atoms: _259  and  _261
REMARK  109  A    between atoms: _261  and  _262
REMARK  110  A    between atoms: _261  and  _264
REMARK  111  A    between atoms: _264  and  _265
REMARK  112  A    between atoms: _265  and  _266
REMARK  113  A    between atoms: _266  and  _267
REMARK  114  A    between atoms: _267  and  _268
REMARK  115  A    between atoms: _273  and  _274
REMARK  116  A    between atoms: _279  and  _281
REMARK  117  A    between atoms: _281  and  _282
REMARK  118  A    between atoms: _284  and  _286
REMARK  119  A    between atoms: _286  and  _287
REMARK  120  A    between atoms: _286  and  _289
REMARK  121  A    between atoms: _292  and  _294
REMARK  122  A    between atoms: _294  and  _295
REMARK  123  A    between atoms: _294  and  _297
REMARK  124  A    between atoms: _297  and  _298
REMARK  125  A    between atoms: _303  and  _304
REMARK                            x       y       z     vdW  Elec       q    Type
REMARK                         _______ _______ _______ _____ _____    ______ ____
ROOT
ATOM      1  C   ILE A   1      60.871  62.527 -31.396  0.00  0.00    +0.202 C 
ATOM      2  N   VAL A   2      60.650  62.564 -30.087  0.00  0.00    -0.301 N 
ATOM      3  H   VAL A   2      59.671  62.542 -29.738  0.00  0.00    +0.150 HD
ATOM      4  O   ILE A   1      61.998  62.569 -31.890  0.00  0.00    -0.277 OA
ENDROOT
BRANCH   1   5
ATOM      5  CA  ILE A   1      59.636  62.433 -32.282  0.00  0.00    +0.013 C 
BRANCH   5   6
ATOM      6  N   ILE A   1      59.612  63.577 -33.239  0.00  0.00    +0.387 N 
ATOM      7  H1  ILE A   1      59.588  64.471 -32.708  0.00  0.00    -0.089 HD
ATOM      8  H2  ILE A   1      60.465  63.548 -33.833  0.00  0.00    -0.089 HD
ATOM      9  H3  ILE A   1      58.767  63.507 -33.841  0.00  0.00    -0.089 HD
ENDBRANCH   5   6
BRANCH   5  10
ATOM     10  CB  ILE A   1      59.682  61.077 -33.024  0.00  0.00    -0.011 C 
ATOM     11  CG2 ILE A   1      59.762  59.935 -32.013  0.00  0.00    -0.002 C 
BRANCH  10  12
ATOM     12  CG1 ILE A   1      58.453  60.917 -33.929  0.00  0.00    -0.002 C 
ATOM     13  CD1 ILE A   1      57.136  60.771 -33.184  0.00  0.00    -0.000 C 
ENDBRANCH  10  12
ENDBRANCH   5  10
ENDBRANCH   1   5
BRANCH   2  14
ATOM     14  CA  VAL A   2      61.743  62.635 -29.127  0.00  0.00    +0.137 C 
BRANCH  14  15
ATOM     15  CB  VAL A   2      61.427  63.634 -27.987  0.00  0.00    +0.026 C 
ATOM     16  CG2 VAL A   2      62.580  63.674 -26.992  0.00  0.00    +0.002 C 
ATOM     17  CG1 VAL A   2      61.175  65.024 -28.562  0.00  0.00    +0.002 C 
ENDBRANCH  14  15
BRANCH  14  18
ATOM     18  C   VAL A   2      61.949  61.246 -28.529  0.00  0.00    +0.227 C 
ATOM     19  O   VAL A   2      60.987  60.583 -28.133  0.00  0.00    -0.286 OA
ENDBRANCH  14  18
ENDBRANCH   2  14
TORSDOF 7
REMARK  Name = ../refined-set-2016/1v2l/1v2l_pocket.pdb
REMARK  125 active torsions:
REMARK  status: ('A' for Active; 'I' for Inactive)
REMARK    1  A    between atoms: _1  and  _5
REMARK    2  A    between atoms: _5  and  _6
REMARK    3  A    between atoms: _5  and  _8
REMARK    4  A    between atoms: _8  and  _9
REMARK    5  A    between atoms: _12  and  _14
REMARK    6  A    between atoms: _14  and  _15
REMARK    7  A    between atoms: _14  and  _17
REMARK    8  A    between atoms: _20  and  _22
REMARK    9  A    between atoms: _22  and  _23
REMARK   10  A    between atoms: _22  and  _25
REMARK   11  A    between atoms: _25  and  _26
REMARK   12  A    between atoms: _31  and  _33
REMARK   13  A    between atoms: _33  and  _34
REMARK   14  A    between atoms: _33  and  _36
REMARK   15  A    between atoms: _36  and  _37
REMARK   16  A    between atoms: _42  and  _43
REMARK   17  A    between atoms: _45  and  _47
REMARK   18  A    between atoms: _47  and  _48
REMARK   19  A    between atoms: _47  and  _50
REMARK   20  A    between atoms: _50  and  _51
REMARK   21  A    between atoms: _54  and  _56
REMARK   22  A    between atoms: _56  and  _57
REMARK   23  A    between atoms: _56  and  _59
REMARK   24  A    between atoms: _59  and  _60
REMARK   25  A    between atoms: _63  and  _65
REMARK   26  A    between atoms: _65  and  _66
REMARK   27  A    between atoms: _65  and  _68
REMARK   28  A    between atoms: _68  and  _69
REMARK   29  A    between atoms: _74  and  _76
REMARK   30  A    between atoms: _76  and  _77
REMARK   31  A    between atoms: _76  and  _79
REMARK   32  A    between atoms: _79  and  _80
REMARK   33  A    between atoms: _85  and  _86
REMARK   34  A    between atoms: _88  and  _90
REMARK   35  A    between atoms: _90  and  _91
REMARK   36  A    between atoms: _94  and  _96
REMARK   37  A    between atoms: _96  and  _97
REMARK   38  A    between atoms: _96  and  _99
REMARK   39  A    between atoms: _99  and  _100
REMARK   40  A    between atoms: _100  and  _101
REMARK   41  A    between atoms: _101  and  _102
REMARK   42  A    between atoms: _102  and  _103
REMARK   43  A    between atoms: _107  and  _109
REMARK   44  A    between atoms: _109  and  _110
REMARK   45  A    between atoms: _109  and  _112
REMARK   46  A    between atoms: _112  and  _113
REMARK   47  A    between atoms: _116  and  _118
REMARK   48  A    between atoms: _118  and  _119
REMARK   49  A    between atoms: _122  and  _124
REMARK   50  A    between atoms: _124  and  _125
REMARK   51  A    between atoms: _124  and  _127
REMARK   52  A    between atoms: _127  and  _128
REMARK   53  A    between atoms: _128  and  _240
REMARK   54  A    between atoms: _129  and  _131
REMARK   55  A    between atoms: _131  and  _132
REMARK   56  A    between atoms: _131  and  _134
REMARK   57  A    between atoms: _134  and  _135
REMARK   58  A    between atoms: _135  and  _136
REMARK   59  A    between atoms: _141  and  _143
REMARK   60  A    between atoms: _143  and  _144
REMARK   61  A    between atoms: _146  and  _148
REMARK   62  A    between atoms: _148  and  _149
REMARK   63  A    between atoms: _148  and  _151
REMARK   64  A    between atoms: _151  and  _152
REMARK   65  A    between atoms: _155  and  _157
REMARK   66  A    between atoms: _157  and  _158
REMARK   67  A    between atoms: _157  and  _160
REMARK   68  A    between atoms: _160  and  _161
REMARK   69  A    between atoms: _163  and  _165
REMARK   70  A    between atoms: _165  and  _166
REMARK   71  A    between atoms: _168  and  _170
REMARK   72  A    between atoms: _170  and  _171
REMARK   73  A    between atoms: _173  and  _175
REMARK   74  A    between atoms: _175  and  _176
REMARK   75  A    between atoms: _175  and  _178
REMARK   76  A    between atoms: _178  and  _179
REMARK   77  A    between atoms: _182  and  _184
REMARK   78  A    between atoms: _184  and  _185
REMARK   79  A    between atoms: _184  and  _187
REMARK   80  A    between atoms: _190  and  _192
REMARK   81  A    between atoms: _192  and  _193
REMARK   82  A    between atoms: _192  and  _195
REMARK   83  A    between atoms: _195  and  _196
REMARK   84  A    between atoms: _198  and  _200
REMARK   85  A    between atoms: _200  and  _201
REMARK   86  A    between atoms: _200  and  _203
REMARK   87  A    between atoms: _203  and  _204
REMARK   88  A    between atoms: _214  and  _216
REMARK   89  A    between atoms: _216  and  _217
REMARK   90  A    between atoms: _219  and  _221
REMARK   91  A    between atoms: _221  and  _222
REMARK   92  A    between atoms: _221  and  _224
REMARK   93  A    between atoms: _224  and  _225
REMARK   94  A    between atoms: _225  and  _226
REMARK   95  A    between atoms: _229  and  _231
REMARK   96  A    between atoms: _231  and  _232
REMARK   97  A    between atoms: _234  and  _236
REMARK   98  A    between atoms: _236  and  _237
REMARK   99  A    between atoms: _236  and  _239
REMARK  100  A    between atoms: _239  and  _240
REMARK  101  A    between atoms: _241  and  _243
REMARK  102  A    between atoms: _243  and  _244
REMARK  103  A    between atoms: _247  and  _249
REMARK  104  A    between atoms: _249  and  _250
REMARK  105  A    between atoms: _249  and  _252
REMARK  106  A    between atoms: _252  and  _253
REMARK  107  A    between atoms: _253  and  _254
REMARK  108  A    between atoms: _259  and  _261
REMARK  109  A    between atoms: _261  and  _262
REMARK  110  A    between atoms: _261  and  _264
REMARK  111  A    between atoms: _264  and  _265
REMARK  112  A    between atoms: _265  and  _266
REMARK  113  A    between atoms: _266  and  _267
REMARK  114  A    between atoms: _267  and  _268
REMARK  115  A    between atoms: _273  and  _274
REMARK  116  A    between atoms: _279  and  _281
REMARK  117  A    between atoms: _281  and  _282
REMARK  118  A    between atoms: _284  and  _286
REMARK  119  A    between atoms: _286  and  _287
REMARK  120  A    between atoms: _286  and  _289
REMARK  121  A    between atoms: _292  and  _294
REMARK  122  A    between atoms: _294  and  _295
REMARK  123  A    between atoms: _294  and  _297
REMARK  124  A    between atoms: _297  and  _298
REMARK  125  A    between atoms: _303  and  _304
REMARK                            x       y       z     vdW  Elec       q    Type
REMARK                         _______ _______ _______ _____ _____    ______ ____
ROOT
ATOM      1  CB  HIS A   1      45.455  72.384 -35.111  0.00  0.00    +0.072 C 
ENDROOT
BRANCH   1   2
ATOM      2  CG  HIS A   1      46.655  71.531 -34.836  0.00  0.00    +0.082 A 
ATOM      3  ND1 HIS A   1      46.562  70.256 -34.317  0.00  0.00    -0.227 NA
ATOM      4  CE1 HIS A   1      47.776  69.780 -34.105  0.00  0.00    +0.199 A 
ATOM      5  NE2 HIS A   1      48.653  70.697 -34.469  0.00  0.00    -0.221 NA
ATOM      6  CD2 HIS A   1      47.978  71.799 -34.934  0.00  0.00    +0.115 A 
ENDBRANCH   1   2
BRANCH   1   7
ATOM      7  CA  HIS A   1      44.947  72.350 -36.570  0.00  0.00    +0.139 C 
BRANCH   7   8
ATOM      8  N   HIS A   1      44.086  71.194 -36.810  0.00  0.00    -0.239 NA
ATOM      9  H   HIS A   1      44.110  70.377 -36.166  0.00  0.00    +0.142 HD
ENDBRANCH   7   8
BRANCH   7  10
ATOM     10  C   HIS A   1      46.098  72.445 -37.574  0.00  0.00    +0.224 C 
ATOM     11  O   HIS A   1      46.869  73.409 -37.570  0.00  0.00    -0.287 OA
ENDBRANCH   7  10
ENDBRANCH   1   7
TORSDOF 4
REMARK  Name = ../refined-set-2016/1v2l/1v2l_pocket.pdb
REMARK  125 active torsions:
REMARK  status: ('A' for Active; 'I' for Inactive)
REMARK    1  A    between atoms: _1  and  _5
REMARK    2  A    between atoms: _5  and  _6
REMARK    3  A    between atoms: _5  and  _8
REMARK    4  A    between atoms: _8  and  _9
REMARK    5  A    between atoms: _12  and  _14
REMARK    6  A    between atoms: _14  and  _15
REMARK    7  A    between atoms: _14  and  _17
REMARK    8  A    between atoms: _20  and  _22
REMARK    9  A    between atoms: _22  and  _23
REMARK   10  A    between atoms: _22  and  _25
REMARK   11  A    between atoms: _25  and  _26
REMARK   12  A    between atoms: _31  and  _33
REMARK   13  A    between atoms: _33  and  _34
REMARK   14  A    between atoms: _33  and  _36
REMARK   15  A    between atoms: _36  and  _37
REMARK   16  A    between atoms: _42  and  _43
REMARK   17  A    between atoms: _45  and  _47
REMARK   18  A    between atoms: _47  and  _48
REMARK   19  A    between atoms: _47  and  _50
REMARK   20  A    between atoms: _50  and  _51
REMARK   21  A    between atoms: _54  and  _56
REMARK   22  A    between atoms: _56  and  _57
REMARK   23  A    between atoms: _56  and  _59
REMARK   24  A    between atoms: _59  and  _60
REMARK   25  A    between atoms: _63  and  _65
REMARK   26  A    between atoms: _65  and  _66
REMARK   27  A    between atoms: _65  and  _68
REMARK   28  A    between atoms: _68  and  _69
REMARK   29  A    between atoms: _74  and  _76
REMARK   30  A    between atoms: _76  and  _77
REMARK   31  A    between atoms: _76  and  _79
REMARK   32  A    between atoms: _79  and  _80
REMARK   33  A    between atoms: _85  and  _86
REMARK   34  A    between atoms: _88  and  _90
REMARK   35  A    between atoms: _90  and  _91
REMARK   36  A    between atoms: _94  and  _96
REMARK   37  A    between atoms: _96  and  _97
REMARK   38  A    between atoms: _96  and  _99
REMARK   39  A    between atoms: _99  and  _100
REMARK   40  A    between atoms: _100  and  _101
REMARK   41  A    between atoms: _101  and  _102
REMARK   42  A    between atoms: _102  and  _103
REMARK   43  A    between atoms: _107  and  _109
REMARK   44  A    between atoms: _109  and  _110
REMARK   45  A    between atoms: _109  and  _112
REMARK   46  A    between atoms: _112  and  _113
REMARK   47  A    between atoms: _116  and  _118
REMARK   48  A    between atoms: _118  and  _119
REMARK   49  A    between atoms: _122  and  _124
REMARK   50  A    between atoms: _124  and  _125
REMARK   51  A    between atoms: _124  and  _127
REMARK   52  A    between atoms: _127  and  _128
REMARK   53  A    between atoms: _128  and  _240
REMARK   54  A    between atoms: _129  and  _131
REMARK   55  A    between atoms: _131  and  _132
REMARK   56  A    between atoms: _131  and  _134
REMARK   57  A    between atoms: _134  and  _135
REMARK   58  A    between atoms: _135  and  _136
REMARK   59  A    between atoms: _141  and  _143
REMARK   60  A    between atoms: _143  and  _144
REMARK   61  A    between atoms: _146  and  _148
REMARK   62  A    between atoms: _148  and  _149
REMARK   63  A    between atoms: _148  and  _151
REMARK   64  A    between atoms: _151  and  _152
REMARK   65  A    between atoms: _155  and  _157
REMARK   66  A    between atoms: _157  and  _158
REMARK   67  A    between atoms: _157  and  _160
REMARK   68  A    between atoms: _160  and  _161
REMARK   69  A    between atoms: _163  and  _165
REMARK   70  A    between atoms: _165  and  _166
REMARK   71  A    between atoms: _168  and  _170
REMARK   72  A    between atoms: _170  and  _171
REMARK   73  A    between atoms: _173  and  _175
REMARK   74  A    between atoms: _175  and  _176
REMARK   75  A    between atoms: _175  and  _178
REMARK   76  A    between atoms: _178  and  _179
REMARK   77  A    between atoms: _182  and  _184
REMARK   78  A    between atoms: _184  and  _185
REMARK   79  A    between atoms: _184  and  _187
REMARK   80  A    between atoms: _190  and  _192
REMARK   81  A    between atoms: _192  and  _193
REMARK   82  A    between atoms: _192  and  _195
REMARK   83  A    between atoms: _195  and  _196
REMARK   84  A    between atoms: _198  and  _200
REMARK   85  A    between atoms: _200  and  _201
REMARK   86  A    between atoms: _200  and  _203
REMARK   87  A    between atoms: _203  and  _204
REMARK   88  A    between atoms: _214  and  _216
REMARK   89  A    between atoms: _216  and  _217
REMARK   90  A    between atoms: _219  and  _221
REMARK   91  A    between atoms: _221  and  _222
REMARK   92  A    between atoms: _221  and  _224
REMARK   93  A    between atoms: _224  and  _225
REMARK   94  A    between atoms: _225  and  _226
REMARK   95  A    between atoms: _229  and  _231
REMARK   96  A    between atoms: _231  and  _232
REMARK   97  A    between atoms: _234  and  _236
REMARK   98  A    between atoms: _236  and  _237
REMARK   99  A    between atoms: _236  and  _239
REMARK  100  A    between atoms: _239  and  _240
REMARK  101  A    between atoms: _241  and  _243
REMARK  102  A    between atoms: _243  and  _244
REMARK  103  A    between atoms: _247  and  _249
REMARK  104  A    between atoms: _249  and  _250
REMARK  105  A    between atoms: _249  and  _252
REMARK  106  A    between atoms: _252  and  _253
REMARK  107  A    between atoms: _253  and  _254
REMARK  108  A    between atoms: _259  and  _261
REMARK  109  A    between atoms: _261  and  _262
REMARK  110  A    between atoms: _261  and  _264
REMARK  111  A    between atoms: _264  and  _265
REMARK  112  A    between atoms: _265  and  _266
REMARK  113  A    between atoms: _266  and  _267
REMARK  114  A    between atoms: _267  and  _268
REMARK  115  A    between atoms: _273  and  _274
REMARK  116  A    between atoms: _279  and  _281
REMARK  117  A    between atoms: _281  and  _282
REMARK  118  A    between atoms: _284  and  _286
REMARK  119  A    between atoms: _286  and  _287
REMARK  120  A    between atoms: _286  and  _289
REMARK  121  A    between atoms: _292  and  _294
REMARK  122  A    between atoms: _294  and  _295
REMARK  123  A    between atoms: _294  and  _297
REMARK  124  A    between atoms: _297  and  _298
REMARK  125  A    between atoms: _303  and  _304
REMARK                            x       y       z     vdW  Elec       q    Type
REMARK                         _______ _______ _______ _____ _____    ______ ____
ROOT
ATOM      1  CG  TYR A   1      44.162  71.624 -30.382  0.00  0.00    -0.020 A 
ATOM      2  CD2 TYR A   1      45.482  71.200 -30.541  0.00  0.00    -0.001 A 
ATOM      3  CE2 TYR A   1      46.428  72.003 -31.178  0.00  0.00    +0.036 A 
ATOM      4  CZ  TYR A   1      46.054  73.246 -31.664  0.00  0.00    +0.134 A 
ATOM      5  CE1 TYR A   1      44.748  73.690 -31.524  0.00  0.00    +0.036 A 
ATOM      6  CD1 TYR A   1      43.810  72.880 -30.886  0.00  0.00    -0.001 A 
ENDROOT
BRANCH   4   7
ATOM      7  OH  TYR A   1      46.991  74.053 -32.272  0.00  0.00    -0.506 OA
ATOM      8  HH  TYR A   1      47.864  73.587 -32.289  0.00  0.00    +0.292 HD
ENDBRANCH   4   7
BRANCH   1   9
ATOM      9  CB  TYR A   1      43.144  70.753 -29.669  0.00  0.00    +0.051 C 
BRANCH   9  10
ATOM     10  CA  TYR A   1      41.689  71.174 -29.915  0.00  0.00    +0.137 C 
BRANCH  10  11
ATOM     11  N   TYR A   1      41.263  72.209 -28.977  0.00  0.00    -0.239 NA
ATOM     12  H   TYR A   1      40.901  73.106 -29.359  0.00  0.00    +0.142 HD
ENDBRANCH  10  11
BRANCH  10  13
ATOM     13  C   TYR A   1      40.765  69.961 -29.863  0.00  0.00    +0.224 C 
ATOM     14  O   TYR A   1      41.137  68.857 -30.259  0.00  0.00    -0.287 OA
ENDBRANCH  10  13
ENDBRANCH   9  10
ENDBRANCH   1   9
TORSDOF 5
REMARK  Name = ../refined-set-2016/1v2l/1v2l_pocket.pdb
REMARK  125 active torsions:
REMARK  status: ('A' for Active; 'I' for Inactive)
REMARK    1  A    between atoms: _1  and  _5
REMARK    2  A    between atoms: _5  and  _6
REMARK    3  A    between atoms: _5  and  _8
REMARK    4  A    between atoms: _8  and  _9
REMARK    5  A    between atoms: _12  and  _14
REMARK    6  A    between atoms: _14  and  _15
REMARK    7  A    between atoms: _14  and  _17
REMARK    8  A    between atoms: _20  and  _22
REMARK    9  A    between atoms: _22  and  _23
REMARK   10  A    between atoms: _22  and  _25
REMARK   11  A    between atoms: _25  and  _26
REMARK   12  A    between atoms: _31  and  _33
REMARK   13  A    between atoms: _33  and  _34
REMARK   14  A    between atoms: _33  and  _36
REMARK   15  A    between atoms: _36  and  _37
REMARK   16  A    between atoms: _42  and  _43
REMARK   17  A    between atoms: _45  and  _47
REMARK   18  A    between atoms: _47  and  _48
REMARK   19  A    between atoms: _47  and  _50
REMARK   20  A    between atoms: _50  and  _51
REMARK   21  A    between atoms: _54  and  _56
REMARK   22  A    between atoms: _56  and  _57
REMARK   23  A    between atoms: _56  and  _59
REMARK   24  A    between atoms: _59  and  _60
REMARK   25  A    between atoms: _63  and  _65
REMARK   26  A    between atoms: _65  and  _66
REMARK   27  A    between atoms: _65  and  _68
REMARK   28  A    between atoms: _68  and  _69
REMARK   29  A    between atoms: _74  and  _76
REMARK   30  A    between atoms: _76  and  _77
REMARK   31  A    between atoms: _76  and  _79
REMARK   32  A    between atoms: _79  and  _80
REMARK   33  A    between atoms: _85  and  _86
REMARK   34  A    between atoms: _88  and  _90
REMARK   35  A    between atoms: _90  and  _91
REMARK   36  A    between atoms: _94  and  _96
REMARK   37  A    between atoms: _96  and  _97
REMARK   38  A    between atoms: _96  and  _99
REMARK   39  A    between atoms: _99  and  _100
REMARK   40  A    between atoms: _100  and  _101
REMARK   41  A    between atoms: _101  and  _102
REMARK   42  A    between atoms: _102  and  _103
REMARK   43  A    between atoms: _107  and  _109
REMARK   44  A    between atoms: _109  and  _110
REMARK   45  A    between atoms: _109  and  _112
REMARK   46  A    between atoms: _112  and  _113
REMARK   47  A    between atoms: _116  and  _118
REMARK   48  A    between atoms: _118  and  _119
REMARK   49  A    between atoms: _122  and  _124
REMARK   50  A    between atoms: _124  and  _125
REMARK   51  A    between atoms: _124  and  _127
REMARK   52  A    between atoms: _127  and  _128
REMARK   53  A    between atoms: _128  and  _240
REMARK   54  A    between atoms: _129  and  _131
REMARK   55  A    between atoms: _131  and  _132
REMARK   56  A    between atoms: _131  and  _134
REMARK   57  A    between atoms: _134  and  _135
REMARK   58  A    between atoms: _135  and  _136
REMARK   59  A    between atoms: _141  and  _143
REMARK   60  A    between atoms: _143  and  _144
REMARK   61  A    between atoms: _146  and  _148
REMARK   62  A    between atoms: _148  and  _149
REMARK   63  A    between atoms: _148  and  _151
REMARK   64  A    between atoms: _151  and  _152
REMARK   65  A    between atoms: _155  and  _157
REMARK   66  A    between atoms: _157  and  _158
REMARK   67  A    between atoms: _157  and  _160
REMARK   68  A    between atoms: _160  and  _161
REMARK   69  A    between atoms: _163  and  _165
REMARK   70  A    between atoms: _165  and  _166
REMARK   71  A    between atoms: _168  and  _170
REMARK   72  A    between atoms: _170  and  _171
REMARK   73  A    between atoms: _173  and  _175
REMARK   74  A    between atoms: _175  and  _176
REMARK   75  A    between atoms: _175  and  _178
REMARK   76  A    between atoms: _178  and  _179
REMARK   77  A    between atoms: _182  and  _184
REMARK   78  A    between atoms: _184  and  _185
REMARK   79  A    between atoms: _184  and  _187
REMARK   80  A    between atoms: _190  and  _192
REMARK   81  A    between atoms: _192  and  _193
REMARK   82  A    between atoms: _192  and  _195
REMARK   83  A    between atoms: _195  and  _196
REMARK   84  A    between atoms: _198  and  _200
REMARK   85  A    between atoms: _200  and  _201
REMARK   86  A    between atoms: _200  and  _203
REMARK   87  A    between atoms: _203  and  _204
REMARK   88  A    between atoms: _214  and  _216
REMARK   89  A    between atoms: _216  and  _217
REMARK   90  A    between atoms: _219  and  _221
REMARK   91  A    between atoms: _221  and  _222
REMARK   92  A    between atoms: _221  and  _224
REMARK   93  A    between atoms: _224  and  _225
REMARK   94  A    between atoms: _225  and  _226
REMARK   95  A    between atoms: _229  and  _231
REMARK   96  A    between atoms: _231  and  _232
REMARK   97  A    between atoms: _234  and  _236
REMARK   98  A    between atoms: _236  and  _237
REMARK   99  A    between atoms: _236  and  _239
REMARK  100  A    between atoms: _239  and  _240
REMARK  101  A    between atoms: _241  and  _243
REMARK  102  A    between atoms: _243  and  _244
REMARK  103  A    between atoms: _247  and  _249
REMARK  104  A    between atoms: _249  and  _250
REMARK  105  A    between atoms: _249  and  _252
REMARK  106  A    between atoms: _252  and  _253
REMARK  107  A    between atoms: _253  and  _254
REMARK  108  A    between atoms: _259  and  _261
REMARK  109  A    between atoms: _261  and  _262
REMARK  110  A    between atoms: _261  and  _264
REMARK  111  A    between atoms: _264  and  _265
REMARK  112  A    between atoms: _265  and  _266
REMARK  113  A    between atoms: _266  and  _267
REMARK  114  A    between atoms: _267  and  _268
REMARK  115  A    between atoms: _273  and  _274
REMARK  116  A    between atoms: _279  and  _281
REMARK  117  A    between atoms: _281  and  _282
REMARK  118  A    between atoms: _284  and  _286
REMARK  119  A    between atoms: _286  and  _287
REMARK  120  A    between atoms: _286  and  _289
REMARK  121  A    between atoms: _292  and  _294
REMARK  122  A    between atoms: _294  and  _295
REMARK  123  A    between atoms: _294  and  _297
REMARK  124  A    between atoms: _297  and  _298
REMARK  125  A    between atoms: _303  and  _304
REMARK                            x       y       z     vdW  Elec       q    Type
REMARK                         _______ _______ _______ _____ _____    ______ ____
ROOT
ATOM      1  CA  ASP A   1      41.170  67.797 -33.969  0.00  0.00    +0.144 C 
ENDROOT
BRANCH   1   2
ATOM      2  N   ASP A   1      40.042  67.417 -33.123  0.00  0.00    -0.239 NA
ATOM      3  H   ASP A   1      40.229  66.979 -32.198  0.00  0.00    +0.142 HD
ENDBRANCH   1   2
BRANCH   1   4
ATOM      4  C   ASP A   1      41.391  66.759 -35.060  0.00  0.00    +0.225 C 
ATOM      5  O   ASP A   1      42.291  65.921 -34.972  0.00  0.00    -0.287 OA
ENDBRANCH   1   4
BRANCH   1   6
ATOM      6  CB  ASP A   1      42.430  67.945 -33.111  0.00  0.00    +0.139 C 
BRANCH   6   7
ATOM      7  CG  ASP A   1      43.574  68.614 -33.852  0.00  0.00    +0.367 C 
ATOM      8  OD2 ASP A   1      44.700  68.622 -33.310  0.00  0.00    -0.246 OA
ATOM      9  OD1 ASP A   1      43.351  69.144 -34.964  0.00  0.00    -0.246 OA
ENDBRANCH   6   7
ENDBRANCH   1   6
TORSDOF 4
REMARK  Name = ../refined-set-2016/1v2l/1v2l_pocket.pdb
REMARK  125 active torsions:
REMARK  status: ('A' for Active; 'I' for Inactive)
REMARK    1  A    between atoms: _1  and  _5
REMARK    2  A    between atoms: _5  and  _6
REMARK    3  A    between atoms: _5  and  _8
REMARK    4  A    between atoms: _8  and  _9
REMARK    5  A    between atoms: _12  and  _14
REMARK    6  A    between atoms: _14  and  _15
REMARK    7  A    between atoms: _14  and  _17
REMARK    8  A    between atoms: _20  and  _22
REMARK    9  A    between atoms: _22  and  _23
REMARK   10  A    between atoms: _22  and  _25
REMARK   11  A    between atoms: _25  and  _26
REMARK   12  A    between atoms: _31  and  _33
REMARK   13  A    between atoms: _33  and  _34
REMARK   14  A    between atoms: _33  and  _36
REMARK   15  A    between atoms: _36  and  _37
REMARK   16  A    between atoms: _42  and  _43
REMARK   17  A    between atoms: _45  and  _47
REMARK   18  A    between atoms: _47  and  _48
REMARK   19  A    between atoms: _47  and  _50
REMARK   20  A    between atoms: _50  and  _51
REMARK   21  A    between atoms: _54  and  _56
REMARK   22  A    between atoms: _56  and  _57
REMARK   23  A    between atoms: _56  and  _59
REMARK   24  A    between atoms: _59  and  _60
REMARK   25  A    between atoms: _63  and  _65
REMARK   26  A    between atoms: _65  and  _66
REMARK   27  A    between atoms: _65  and  _68
REMARK   28  A    between atoms: _68  and  _69
REMARK   29  A    between atoms: _74  and  _76
REMARK   30  A    between atoms: _76  and  _77
REMARK   31  A    between atoms: _76  and  _79
REMARK   32  A    between atoms: _79  and  _80
REMARK   33  A    between atoms: _85  and  _86
REMARK   34  A    between atoms: _88  and  _90
REMARK   35  A    between atoms: _90  and  _91
REMARK   36  A    between atoms: _94  and  _96
REMARK   37  A    between atoms: _96  and  _97
REMARK   38  A    between atoms: _96  and  _99
REMARK   39  A    between atoms: _99  and  _100
REMARK   40  A    between atoms: _100  and  _101
REMARK   41  A    between atoms: _101  and  _102
REMARK   42  A    between atoms: _102  and  _103
REMARK   43  A    between atoms: _107  and  _109
REMARK   44  A    between atoms: _109  and  _110
REMARK   45  A    between atoms: _109  and  _112
REMARK   46  A    between atoms: _112  and  _113
REMARK   47  A    between atoms: _116  and  _118
REMARK   48  A    between atoms: _118  and  _119
REMARK   49  A    between atoms: _122  and  _124
REMARK   50  A    between atoms: _124  and  _125
REMARK   51  A    between atoms: _124  and  _127
REMARK   52  A    between atoms: _127  and  _128
REMARK   53  A    between atoms: _128  and  _240
REMARK   54  A    between atoms: _129  and  _131
REMARK   55  A    between atoms: _131  and  _132
REMARK   56  A    between atoms: _131  and  _134
REMARK   57  A    between atoms: _134  and  _135
REMARK   58  A    between atoms: _135  and  _136
REMARK   59  A    between atoms: _141  and  _143
REMARK   60  A    between atoms: _143  and  _144
REMARK   61  A    between atoms: _146  and  _148
REMARK   62  A    between atoms: _148  and  _149
REMARK   63  A    between atoms: _148  and  _151
REMARK   64  A    between atoms: _151  and  _152
REMARK   65  A    between atoms: _155  and  _157
REMARK   66  A    between atoms: _157  and  _158
REMARK   67  A    between atoms: _157  and  _160
REMARK   68  A    between atoms: _160  and  _161
REMARK   69  A    between atoms: _163  and  _165
REMARK   70  A    between atoms: _165  and  _166
REMARK   71  A    between atoms: _168  and  _170
REMARK   72  A    between atoms: _170  and  _171
REMARK   73  A    between atoms: _173  and  _175
REMARK   74  A    between atoms: _175  and  _176
REMARK   75  A    between atoms: _175  and  _178
REMARK   76  A    between atoms: _178  and  _179
REMARK   77  A    between atoms: _182  and  _184
REMARK   78  A    between atoms: _184  and  _185
REMARK   79  A    between atoms: _184  and  _187
REMARK   80  A    between atoms: _190  and  _192
REMARK   81  A    between atoms: _192  and  _193
REMARK   82  A    between atoms: _192  and  _195
REMARK   83  A    between atoms: _195  and  _196
REMARK   84  A    between atoms: _198  and  _200
REMARK   85  A    between atoms: _200  and  _201
REMARK   86  A    between atoms: _200  and  _203
REMARK   87  A    between atoms: _203  and  _204
REMARK   88  A    between atoms: _214  and  _216
REMARK   89  A    between atoms: _216  and  _217
REMARK   90  A    between atoms: _219  and  _221
REMARK   91  A    between atoms: _221  and  _222
REMARK   92  A    between atoms: _221  and  _224
REMARK   93  A    between atoms: _224  and  _225
REMARK   94  A    between atoms: _225  and  _226
REMARK   95  A    between atoms: _229  and  _231
REMARK   96  A    between atoms: _231  and  _232
REMARK   97  A    between atoms: _234  and  _236
REMARK   98  A    between atoms: _236  and  _237
REMARK   99  A    between atoms: _236  and  _239
REMARK  100  A    between atoms: _239  and  _240
REMARK  101  A    between atoms: _241  and  _243
REMARK  102  A    between atoms: _243  and  _244
REMARK  103  A    between atoms: _247  and  _249
REMARK  104  A    between atoms: _249  and  _250
REMARK  105  A    between atoms: _249  and  _252
REMARK  106  A    between atoms: _252  and  _253
REMARK  107  A    between atoms: _253  and  _254
REMARK  108  A    between atoms: _259  and  _261
REMARK  109  A    between atoms: _261  and  _262
REMARK  110  A    between atoms: _261  and  _264
REMARK  111  A    between atoms: _264  and  _265
REMARK  112  A    between atoms: _265  and  _266
REMARK  113  A    between atoms: _266  and  _267
REMARK  114  A    between atoms: _267  and  _268
REMARK  115  A    between atoms: _273  and  _274
REMARK  116  A    between atoms: _279  and  _281
REMARK  117  A    between atoms: _281  and  _282
REMARK  118  A    between atoms: _284  and  _286
REMARK  119  A    between atoms: _286  and  _287
REMARK  120  A    between atoms: _286  and  _289
REMARK  121  A    between atoms: _292  and  _294
REMARK  122  A    between atoms: _294  and  _295
REMARK  123  A    between atoms: _294  and  _297
REMARK  124  A    between atoms: _297  and  _298
REMARK  125  A    between atoms: _303  and  _304
REMARK                            x       y       z     vdW  Elec       q    Type
REMARK                         _______ _______ _______ _____ _____    ______ ____
ROOT
ATOM      1  CA  ILE A   1      53.818  56.757 -33.656  0.00  0.00    +0.133 C 
ENDROOT
BRANCH   1   2
ATOM      2  N   ILE A   1      54.007  55.350 -33.307  0.00  0.00    -0.239 NA
ATOM      3  H   ILE A   1      54.814  55.085 -32.707  0.00  0.00    +0.142 HD
ENDBRANCH   1   2
BRANCH   1   4
ATOM      4  CB  ILE A   1      53.829  57.639 -32.391  0.00  0.00    +0.023 C 
ATOM      5  CG2 ILE A   1      53.510  59.089 -32.755  0.00  0.00    +0.002 C 
BRANCH   4   6
ATOM      6  CG1 ILE A   1      52.793  57.111 -31.394  0.00  0.00    +0.002 C 
ATOM      7  CD1 ILE A   1      52.782  57.845 -30.068  0.00  0.00    +0.000 C 
ENDBRANCH   4   6
ENDBRANCH   1   4
BRANCH   1   8
ATOM      8  C   ILE A   1      54.991  57.131 -34.556  0.00  0.00    +0.224 C 
ATOM      9  O   ILE A   1      56.113  56.699 -34.315  0.00  0.00    -0.287 OA
ENDBRANCH   1   8
TORSDOF 4
REMARK  Name = ../refined-set-2016/1v2l/1v2l_pocket.pdb
REMARK  125 active torsions:
REMARK  status: ('A' for Active; 'I' for Inactive)
REMARK    1  A    between atoms: _1  and  _5
REMARK    2  A    between atoms: _5  and  _6
REMARK    3  A    between atoms: _5  and  _8
REMARK    4  A    between atoms: _8  and  _9
REMARK    5  A    between atoms: _12  and  _14
REMARK    6  A    between atoms: _14  and  _15
REMARK    7  A    between atoms: _14  and  _17
REMARK    8  A    between atoms: _20  and  _22
REMARK    9  A    between atoms: _22  and  _23
REMARK   10  A    between atoms: _22  and  _25
REMARK   11  A    between atoms: _25  and  _26
REMARK   12  A    between atoms: _31  and  _33
REMARK   13  A    between atoms: _33  and  _34
REMARK   14  A    between atoms: _33  and  _36
REMARK   15  A    between atoms: _36  and  _37
REMARK   16  A    between atoms: _42  and  _43
REMARK   17  A    between atoms: _45  and  _47
REMARK   18  A    between atoms: _47  and  _48
REMARK   19  A    between atoms: _47  and  _50
REMARK   20  A    between atoms: _50  and  _51
REMARK   21  A    between atoms: _54  and  _56
REMARK   22  A    between atoms: _56  and  _57
REMARK   23  A    between atoms: _56  and  _59
REMARK   24  A    between atoms: _59  and  _60
REMARK   25  A    between atoms: _63  and  _65
REMARK   26  A    between atoms: _65  and  _66
REMARK   27  A    between atoms: _65  and  _68
REMARK   28  A    between atoms: _68  and  _69
REMARK   29  A    between atoms: _74  and  _76
REMARK   30  A    between atoms: _76  and  _77
REMARK   31  A    between atoms: _76  and  _79
REMARK   32  A    between atoms: _79  and  _80
REMARK   33  A    between atoms: _85  and  _86
REMARK   34  A    between atoms: _88  and  _90
REMARK   35  A    between atoms: _90  and  _91
REMARK   36  A    between atoms: _94  and  _96
REMARK   37  A    between atoms: _96  and  _97
REMARK   38  A    between atoms: _96  and  _99
REMARK   39  A    between atoms: _99  and  _100
REMARK   40  A    between atoms: _100  and  _101
REMARK   41  A    between atoms: _101  and  _102
REMARK   42  A    between atoms: _102  and  _103
REMARK   43  A    between atoms: _107  and  _109
REMARK   44  A    between atoms: _109  and  _110
REMARK   45  A    between atoms: _109  and  _112
REMARK   46  A    between atoms: _112  and  _113
REMARK   47  A    between atoms: _116  and  _118
REMARK   48  A    between atoms: _118  and  _119
REMARK   49  A    between atoms: _122  and  _124
REMARK   50  A    between atoms: _124  and  _125
REMARK   51  A    between atoms: _124  and  _127
REMARK   52  A    between atoms: _127  and  _128
REMARK   53  A    between atoms: _128  and  _240
REMARK   54  A    between atoms: _129  and  _131
REMARK   55  A    between atoms: _131  and  _132
REMARK   56  A    between atoms: _131  and  _134
REMARK   57  A    between atoms: _134  and  _135
REMARK   58  A    between atoms: _135  and  _136
REMARK   59  A    between atoms: _141  and  _143
REMARK   60  A    between atoms: _143  and  _144
REMARK   61  A    between atoms: _146  and  _148
REMARK   62  A    between atoms: _148  and  _149
REMARK   63  A    between atoms: _148  and  _151
REMARK   64  A    between atoms: _151  and  _152
REMARK   65  A    between atoms: _155  and  _157
REMARK   66  A    between atoms: _157  and  _158
REMARK   67  A    between atoms: _157  and  _160
REMARK   68  A    between atoms: _160  and  _161
REMARK   69  A    between atoms: _163  and  _165
REMARK   70  A    between atoms: _165  and  _166
REMARK   71  A    between atoms: _168  and  _170
REMARK   72  A    between atoms: _170  and  _171
REMARK   73  A    between atoms: _173  and  _175
REMARK   74  A    between atoms: _175  and  _176
REMARK   75  A    between atoms: _175  and  _178
REMARK   76  A    between atoms: _178  and  _179
REMARK   77  A    between atoms: _182  and  _184
REMARK   78  A    between atoms: _184  and  _185
REMARK   79  A    between atoms: _184  and  _187
REMARK   80  A    between atoms: _190  and  _192
REMARK   81  A    between atoms: _192  and  _193
REMARK   82  A    between atoms: _192  and  _195
REMARK   83  A    between atoms: _195  and  _196
REMARK   84  A    between atoms: _198  and  _200
REMARK   85  A    between atoms: _200  and  _201
REMARK   86  A    between atoms: _200  and  _203
REMARK   87  A    between atoms: _203  and  _204
REMARK   88  A    between atoms: _214  and  _216
REMARK   89  A    between atoms: _216  and  _217
REMARK   90  A    between atoms: _219  and  _221
REMARK   91  A    between atoms: _221  and  _222
REMARK   92  A    between atoms: _221  and  _224
REMARK   93  A    between atoms: _224  and  _225
REMARK   94  A    between atoms: _225  and  _226
REMARK   95  A    between atoms: _229  and  _231
REMARK   96  A    between atoms: _231  and  _232
REMARK   97  A    between atoms: _234  and  _236
REMARK   98  A    between atoms: _236  and  _237
REMARK   99  A    between atoms: _236  and  _239
REMARK  100  A    between atoms: _239  and  _240
REMARK  101  A    between atoms: _241  and  _243
REMARK  102  A    between atoms: _243  and  _244
REMARK  103  A    between atoms: _247  and  _249
REMARK  104  A    between atoms: _249  and  _250
REMARK  105  A    between atoms: _249  and  _252
REMARK  106  A    between atoms: _252  and  _253
REMARK  107  A    between atoms: _253  and  _254
REMARK  108  A    between atoms: _259  and  _261
REMARK  109  A    between atoms: _261  and  _262
REMARK  110  A    between atoms: _261  and  _264
REMARK  111  A    between atoms: _264  and  _265
REMARK  112  A    between atoms: _265  and  _266
REMARK  113  A    between atoms: _266  and  _267
REMARK  114  A    between atoms: _267  and  _268
REMARK  115  A    between atoms: _273  and  _274
REMARK  116  A    between atoms: _279  and  _281
REMARK  117  A    between atoms: _281  and  _282
REMARK  118  A    between atoms: _284  and  _286
REMARK  119  A    between atoms: _286  and  _287
REMARK  120  A    between atoms: _286  and  _289
REMARK  121  A    between atoms: _292  and  _294
REMARK  122  A    between atoms: _294  and  _295
REMARK  123  A    between atoms: _294  and  _297
REMARK  124  A    between atoms: _297  and  _298
REMARK  125  A    between atoms: _303  and  _304
REMARK                            x       y       z     vdW  Elec       q    Type
REMARK                         _______ _______ _______ _____ _____    ______ ____
ROOT
ATOM      1  CB  ASN A   1      61.092  69.127 -32.630  0.00  0.00    +0.110 C 
ENDROOT
BRANCH   1   2
ATOM      2  CG  ASN A   1      62.284  69.624 -31.834  0.00  0.00    +0.221 C 
ATOM      3  ND2 ASN A   1      62.010  70.396 -30.787  0.00  0.00    -0.329 N 
ATOM      4 HD21 ASN A   1      62.784  70.781 -30.208  0.00  0.00    +0.145 HD
ATOM      5 HD22 ASN A   1      61.022  70.615 -30.547  0.00  0.00    +0.145 HD
ATOM      6  OD1 ASN A   1      63.431  69.335 -32.161  0.00  0.00    -0.275 OA
ENDBRANCH   1   2
BRANCH   1   7
ATOM      7  CA  ASN A   1      61.435  67.947 -33.548  0.00  0.00    +0.142 C 
BRANCH   7   8
ATOM      8  N   ASN A   1      60.284  67.646 -34.397  0.00  0.00    -0.239 NA
ATOM      9  H   ASN A   1      59.462  68.282 -34.360  0.00  0.00    +0.142 HD
ENDBRANCH   7   8
BRANCH   7  10
ATOM     10  C   ASN A   1      61.830  66.725 -32.726  0.00  0.00    +0.225 C 
ATOM     11  O   ASN A   1      60.973  65.988 -32.236  0.00  0.00    -0.287 OA
ENDBRANCH   7  10
ENDBRANCH   1   7
TORSDOF 4
REMARK  Name = ../refined-set-2016/1v2l/1v2l_pocket.pdb
REMARK  125 active torsions:
REMARK  status: ('A' for Active; 'I' for Inactive)
REMARK    1  A    between atoms: _1  and  _5
REMARK    2  A    between atoms: _5  and  _6
REMARK    3  A    between atoms: _5  and  _8
REMARK    4  A    between atoms: _8  and  _9
REMARK    5  A    between atoms: _12  and  _14
REMARK    6  A    between atoms: _14  and  _15
REMARK    7  A    between atoms: _14  and  _17
REMARK    8  A    between atoms: _20  and  _22
REMARK    9  A    between atoms: _22  and  _23
REMARK   10  A    between atoms: _22  and  _25
REMARK   11  A    between atoms: _25  and  _26
REMARK   12  A    between atoms: _31  and  _33
REMARK   13  A    between atoms: _33  and  _34
REMARK   14  A    between atoms: _33  and  _36
REMARK   15  A    between atoms: _36  and  _37
REMARK   16  A    between atoms: _42  and  _43
REMARK   17  A    between atoms: _45  and  _47
REMARK   18  A    between atoms: _47  and  _48
REMARK   19  A    between atoms: _47  and  _50
REMARK   20  A    between atoms: _50  and  _51
REMARK   21  A    between atoms: _54  and  _56
REMARK   22  A    between atoms: _56  and  _57
REMARK   23  A    between atoms: _56  and  _59
REMARK   24  A    between atoms: _59  and  _60
REMARK   25  A    between atoms: _63  and  _65
REMARK   26  A    between atoms: _65  and  _66
REMARK   27  A    between atoms: _65  and  _68
REMARK   28  A    between atoms: _68  and  _69
REMARK   29  A    between atoms: _74  and  _76
REMARK   30  A    between atoms: _76  and  _77
REMARK   31  A    between atoms: _76  and  _79
REMARK   32  A    between atoms: _79  and  _80
REMARK   33  A    between atoms: _85  and  _86
REMARK   34  A    between atoms: _88  and  _90
REMARK   35  A    between atoms: _90  and  _91
REMARK   36  A    between atoms: _94  and  _96
REMARK   37  A    between atoms: _96  and  _97
REMARK   38  A    between atoms: _96  and  _99
REMARK   39  A    between atoms: _99  and  _100
REMARK   40  A    between atoms: _100  and  _101
REMARK   41  A    between atoms: _101  and  _102
REMARK   42  A    between atoms: _102  and  _103
REMARK   43  A    between atoms: _107  and  _109
REMARK   44  A    between atoms: _109  and  _110
REMARK   45  A    between atoms: _109  and  _112
REMARK   46  A    between atoms: _112  and  _113
REMARK   47  A    between atoms: _116  and  _118
REMARK   48  A    between atoms: _118  and  _119
REMARK   49  A    between atoms: _122  and  _124
REMARK   50  A    between atoms: _124  and  _125
REMARK   51  A    between atoms: _124  and  _127
REMARK   52  A    between atoms: _127  and  _128
REMARK   53  A    between atoms: _128  and  _240
REMARK   54  A    between atoms: _129  and  _131
REMARK   55  A    between atoms: _131  and  _132
REMARK   56  A    between atoms: _131  and  _134
REMARK   57  A    between atoms: _134  and  _135
REMARK   58  A    between atoms: _135  and  _136
REMARK   59  A    between atoms: _141  and  _143
REMARK   60  A    between atoms: _143  and  _144
REMARK   61  A    between atoms: _146  and  _148
REMARK   62  A    between atoms: _148  and  _149
REMARK   63  A    between atoms: _148  and  _151
REMARK   64  A    between atoms: _151  and  _152
REMARK   65  A    between atoms: _155  and  _157
REMARK   66  A    between atoms: _157  and  _158
REMARK   67  A    between atoms: _157  and  _160
REMARK   68  A    between atoms: _160  and  _161
REMARK   69  A    between atoms: _163  and  _165
REMARK   70  A    between atoms: _165  and  _166
REMARK   71  A    between atoms: _168  and  _170
REMARK   72  A    between atoms: _170  and  _171
REMARK   73  A    between atoms: _173  and  _175
REMARK   74  A    between atoms: _175  and  _176
REMARK   75  A    between atoms: _175  and  _178
REMARK   76  A    between atoms: _178  and  _179
REMARK   77  A    between atoms: _182  and  _184
REMARK   78  A    between atoms: _184  and  _185
REMARK   79  A    between atoms: _184  and  _187
REMARK   80  A    between atoms: _190  and  _192
REMARK   81  A    between atoms: _192  and  _193
REMARK   82  A    between atoms: _192  and  _195
REMARK   83  A    between atoms: _195  and  _196
REMARK   84  A    between atoms: _198  and  _200
REMARK   85  A    between atoms: _200  and  _201
REMARK   86  A    between atoms: _200  and  _203
REMARK   87  A    between atoms: _203  and  _204
REMARK   88  A    between atoms: _214  and  _216
REMARK   89  A    between atoms: _216  and  _217
REMARK   90  A    between atoms: _219  and  _221
REMARK   91  A    between atoms: _221  and  _222
REMARK   92  A    between atoms: _221  and  _224
REMARK   93  A    between atoms: _224  and  _225
REMARK   94  A    between atoms: _225  and  _226
REMARK   95  A    between atoms: _229  and  _231
REMARK   96  A    between atoms: _231  and  _232
REMARK   97  A    between atoms: _234  and  _236
REMARK   98  A    between atoms: _236  and  _237
REMARK   99  A    between atoms: _236  and  _239
REMARK  100  A    between atoms: _239  and  _240
REMARK  101  A    between atoms: _241  and  _243
REMARK  102  A    between atoms: _243  and  _244
REMARK  103  A    between atoms: _247  and  _249
REMARK  104  A    between atoms: _249  and  _250
REMARK  105  A    between atoms: _249  and  _252
REMARK  106  A    between atoms: _252  and  _253
REMARK  107  A    between atoms: _253  and  _254
REMARK  108  A    between atoms: _259  and  _261
REMARK  109  A    between atoms: _261  and  _262
REMARK  110  A    between atoms: _261  and  _264
REMARK  111  A    between atoms: _264  and  _265
REMARK  112  A    between atoms: _265  and  _266
REMARK  113  A    between atoms: _266  and  _267
REMARK  114  A    between atoms: _267  and  _268
REMARK  115  A    between atoms: _273  and  _274
REMARK  116  A    between atoms: _279  and  _281
REMARK  117  A    between atoms: _281  and  _282
REMARK  118  A    between atoms: _284  and  _286
REMARK  119  A    between atoms: _286  and  _287
REMARK  120  A    between atoms: _286  and  _289
REMARK  121  A    between atoms: _292  and  _294
REMARK  122  A    between atoms: _294  and  _295
REMARK  123  A    between atoms: _294  and  _297
REMARK  124  A    between atoms: _297  and  _298
REMARK  125  A    between atoms: _303  and  _304
REMARK                            x       y       z     vdW  Elec       q    Type
REMARK                         _______ _______ _______ _____ _____    ______ ____
ROOT
ATOM      1  CG  TYR A   1      62.752  70.221 -37.190  0.00  0.00    -0.020 A 
ATOM      2  CD2 TYR A   1      63.083  71.413 -36.550  0.00  0.00    -0.001 A 
ATOM      3  CE2 TYR A   1      62.146  72.099 -35.780  0.00  0.00    +0.036 A 
ATOM      4  CZ  TYR A   1      60.865  71.593 -35.651  0.00  0.00    +0.134 A 
ATOM      5  CE1 TYR A   1      60.512  70.412 -36.281  0.00  0.00    +0.036 A 
ATOM      6  CD1 TYR A   1      61.455  69.733 -37.046  0.00  0.00    -0.001 A 
ENDROOT
BRANCH   4   7
ATOM      7  OH  TYR A   1      59.937  72.265 -34.890  0.00  0.00    -0.506 OA
ATOM      8  HH  TYR A   1      59.080  71.770 -34.904  0.00  0.00    +0.292 HD
ENDBRANCH   4   7
BRANCH   1   9
ATOM      9  CB  TYR A   1      63.784  69.451 -37.977  0.00  0.00    +0.051 C 
BRANCH   9  10
ATOM     10  CA  TYR A   1      64.542  68.446 -37.114  0.00  0.00    +0.137 C 
BRANCH  10  11
ATOM     11  N   TYR A   1      65.468  69.149 -36.238  0.00  0.00    -0.239 NA
ATOM     12  H   TYR A   1      65.999  69.964 -36.607  0.00  0.00    +0.142 HD
ENDBRANCH  10  11
BRANCH  10  13
ATOM     13  C   TYR A   1      65.257  67.436 -37.989  0.00  0.00    +0.224 C 
ATOM     14  O   TYR A   1      66.240  67.761 -38.658  0.00  0.00    -0.287 OA
ENDBRANCH  10  13
ENDBRANCH   9  10
ENDBRANCH   1   9
TORSDOF 5
REMARK  Name = ../refined-set-2016/1v2l/1v2l_pocket.pdb
REMARK  125 active torsions:
REMARK  status: ('A' for Active; 'I' for Inactive)
REMARK    1  A    between atoms: _1  and  _5
REMARK    2  A    between atoms: _5  and  _6
REMARK    3  A    between atoms: _5  and  _8
REMARK    4  A    between atoms: _8  and  _9
REMARK    5  A    between atoms: _12  and  _14
REMARK    6  A    between atoms: _14  and  _15
REMARK    7  A    between atoms: _14  and  _17
REMARK    8  A    between atoms: _20  and  _22
REMARK    9  A    between atoms: _22  and  _23
REMARK   10  A    between atoms: _22  and  _25
REMARK   11  A    between atoms: _25  and  _26
REMARK   12  A    between atoms: _31  and  _33
REMARK   13  A    between atoms: _33  and  _34
REMARK   14  A    between atoms: _33  and  _36
REMARK   15  A    between atoms: _36  and  _37
REMARK   16  A    between atoms: _42  and  _43
REMARK   17  A    between atoms: _45  and  _47
REMARK   18  A    between atoms: _47  and  _48
REMARK   19  A    between atoms: _47  and  _50
REMARK   20  A    between atoms: _50  and  _51
REMARK   21  A    between atoms: _54  and  _56
REMARK   22  A    between atoms: _56  and  _57
REMARK   23  A    between atoms: _56  and  _59
REMARK   24  A    between atoms: _59  and  _60
REMARK   25  A    between atoms: _63  and  _65
REMARK   26  A    between atoms: _65  and  _66
REMARK   27  A    between atoms: _65  and  _68
REMARK   28  A    between atoms: _68  and  _69
REMARK   29  A    between atoms: _74  and  _76
REMARK   30  A    between atoms: _76  and  _77
REMARK   31  A    between atoms: _76  and  _79
REMARK   32  A    between atoms: _79  and  _80
REMARK   33  A    between atoms: _85  and  _86
REMARK   34  A    between atoms: _88  and  _90
REMARK   35  A    between atoms: _90  and  _91
REMARK   36  A    between atoms: _94  and  _96
REMARK   37  A    between atoms: _96  and  _97
REMARK   38  A    between atoms: _96  and  _99
REMARK   39  A    between atoms: _99  and  _100
REMARK   40  A    between atoms: _100  and  _101
REMARK   41  A    between atoms: _101  and  _102
REMARK   42  A    between atoms: _102  and  _103
REMARK   43  A    between atoms: _107  and  _109
REMARK   44  A    between atoms: _109  and  _110
REMARK   45  A    between atoms: _109  and  _112
REMARK   46  A    between atoms: _112  and  _113
REMARK   47  A    between atoms: _116  and  _118
REMARK   48  A    between atoms: _118  and  _119
REMARK   49  A    between atoms: _122  and  _124
REMARK   50  A    between atoms: _124  and  _125
REMARK   51  A    between atoms: _124  and  _127
REMARK   52  A    between atoms: _127  and  _128
REMARK   53  A    between atoms: _128  and  _240
REMARK   54  A    between atoms: _129  and  _131
REMARK   55  A    between atoms: _131  and  _132
REMARK   56  A    between atoms: _131  and  _134
REMARK   57  A    between atoms: _134  and  _135
REMARK   58  A    between atoms: _135  and  _136
REMARK   59  A    between atoms: _141  and  _143
REMARK   60  A    between atoms: _143  and  _144
REMARK   61  A    between atoms: _146  and  _148
REMARK   62  A    between atoms: _148  and  _149
REMARK   63  A    between atoms: _148  and  _151
REMARK   64  A    between atoms: _151  and  _152
REMARK   65  A    between atoms: _155  and  _157
REMARK   66  A    between atoms: _157  and  _158
REMARK   67  A    between atoms: _157  and  _160
REMARK   68  A    between atoms: _160  and  _161
REMARK   69  A    between atoms: _163  and  _165
REMARK   70  A    between atoms: _165  and  _166
REMARK   71  A    between atoms: _168  and  _170
REMARK   72  A    between atoms: _170  and  _171
REMARK   73  A    between atoms: _173  and  _175
REMARK   74  A    between atoms: _175  and  _176
REMARK   75  A    between atoms: _175  and  _178
REMARK   76  A    between atoms: _178  and  _179
REMARK   77  A    between atoms: _182  and  _184
REMARK   78  A    between atoms: _184  and  _185
REMARK   79  A    between atoms: _184  and  _187
REMARK   80  A    between atoms: _190  and  _192
REMARK   81  A    between atoms: _192  and  _193
REMARK   82  A    between atoms: _192  and  _195
REMARK   83  A    between atoms: _195  and  _196
REMARK   84  A    between atoms: _198  and  _200
REMARK   85  A    between atoms: _200  and  _201
REMARK   86  A    between atoms: _200  and  _203
REMARK   87  A    between atoms: _203  and  _204
REMARK   88  A    between atoms: _214  and  _216
REMARK   89  A    between atoms: _216  and  _217
REMARK   90  A    between atoms: _219  and  _221
REMARK   91  A    between atoms: _221  and  _222
REMARK   92  A    between atoms: _221  and  _224
REMARK   93  A    between atoms: _224  and  _225
REMARK   94  A    between atoms: _225  and  _226
REMARK   95  A    between atoms: _229  and  _231
REMARK   96  A    between atoms: _231  and  _232
REMARK   97  A    between atoms: _234  and  _236
REMARK   98  A    between atoms: _236  and  _237
REMARK   99  A    between atoms: _236  and  _239
REMARK  100  A    between atoms: _239  and  _240
REMARK  101  A    between atoms: _241  and  _243
REMARK  102  A    between atoms: _243  and  _244
REMARK  103  A    between atoms: _247  and  _249
REMARK  104  A    between atoms: _249  and  _250
REMARK  105  A    between atoms: _249  and  _252
REMARK  106  A    between atoms: _252  and  _253
REMARK  107  A    between atoms: _253  and  _254
REMARK  108  A    between atoms: _259  and  _261
REMARK  109  A    between atoms: _261  and  _262
REMARK  110  A    between atoms: _261  and  _264
REMARK  111  A    between atoms: _264  and  _265
REMARK  112  A    between atoms: _265  and  _266
REMARK  113  A    between atoms: _266  and  _267
REMARK  114  A    between atoms: _267  and  _268
REMARK  115  A    between atoms: _273  and  _274
REMARK  116  A    between atoms: _279  and  _281
REMARK  117  A    between atoms: _281  and  _282
REMARK  118  A    between atoms: _284  and  _286
REMARK  119  A    between atoms: _286  and  _287
REMARK  120  A    between atoms: _286  and  _289
REMARK  121  A    between atoms: _292  and  _294
REMARK  122  A    between atoms: _294  and  _295
REMARK  123  A    between atoms: _294  and  _297
REMARK  124  A    between atoms: _297  and  _298
REMARK  125  A    between atoms: _303  and  _304
REMARK                            x       y       z     vdW  Elec       q    Type
REMARK                         _______ _______ _______ _____ _____    ______ ____
ROOT
ATOM      1  CA  ALA A   1      49.860  57.698 -25.002  0.00  0.00    +0.133 C 
ATOM      2  CB  ALA A   1      49.697  57.279 -26.458  0.00  0.00    +0.027 C 
ENDROOT
BRANCH   1   3
ATOM      3  N   ALA A   1      48.987  58.816 -24.688  0.00  0.00    -0.239 NA
ATOM      4  H   ALA A   1      49.334  59.784 -24.842  0.00  0.00    +0.142 HD
ENDBRANCH   1   3
BRANCH   1   5
ATOM      5  C   ALA A   1      51.267  58.205 -24.749  0.00  0.00    +0.224 C 
ATOM      6  O   ALA A   1      51.552  59.386 -24.955  0.00  0.00    -0.287 OA
ENDBRANCH   1   5
TORSDOF 2
REMARK  Name = ../refined-set-2016/1v2l/1v2l_pocket.pdb
REMARK  125 active torsions:
REMARK  status: ('A' for Active; 'I' for Inactive)
REMARK    1  A    between atoms: _1  and  _5
REMARK    2  A    between atoms: _5  and  _6
REMARK    3  A    between atoms: _5  and  _8
REMARK    4  A    between atoms: _8  and  _9
REMARK    5  A    between atoms: _12  and  _14
REMARK    6  A    between atoms: _14  and  _15
REMARK    7  A    between atoms: _14  and  _17
REMARK    8  A    between atoms: _20  and  _22
REMARK    9  A    between atoms: _22  and  _23
REMARK   10  A    between atoms: _22  and  _25
REMARK   11  A    between atoms: _25  and  _26
REMARK   12  A    between atoms: _31  and  _33
REMARK   13  A    between atoms: _33  and  _34
REMARK   14  A    between atoms: _33  and  _36
REMARK   15  A    between atoms: _36  and  _37
REMARK   16  A    between atoms: _42  and  _43
REMARK   17  A    between atoms: _45  and  _47
REMARK   18  A    between atoms: _47  and  _48
REMARK   19  A    between atoms: _47  and  _50
REMARK   20  A    between atoms: _50  and  _51
REMARK   21  A    between atoms: _54  and  _56
REMARK   22  A    between atoms: _56  and  _57
REMARK   23  A    between atoms: _56  and  _59
REMARK   24  A    between atoms: _59  and  _60
REMARK   25  A    between atoms: _63  and  _65
REMARK   26  A    between atoms: _65  and  _66
REMARK   27  A    between atoms: _65  and  _68
REMARK   28  A    between atoms: _68  and  _69
REMARK   29  A    between atoms: _74  and  _76
REMARK   30  A    between atoms: _76  and  _77
REMARK   31  A    between atoms: _76  and  _79
REMARK   32  A    between atoms: _79  and  _80
REMARK   33  A    between atoms: _85  and  _86
REMARK   34  A    between atoms: _88  and  _90
REMARK   35  A    between atoms: _90  and  _91
REMARK   36  A    between atoms: _94  and  _96
REMARK   37  A    between atoms: _96  and  _97
REMARK   38  A    between atoms: _96  and  _99
REMARK   39  A    between atoms: _99  and  _100
REMARK   40  A    between atoms: _100  and  _101
REMARK   41  A    between atoms: _101  and  _102
REMARK   42  A    between atoms: _102  and  _103
REMARK   43  A    between atoms: _107  and  _109
REMARK   44  A    between atoms: _109  and  _110
REMARK   45  A    between atoms: _109  and  _112
REMARK   46  A    between atoms: _112  and  _113
REMARK   47  A    between atoms: _116  and  _118
REMARK   48  A    between atoms: _118  and  _119
REMARK   49  A    between atoms: _122  and  _124
REMARK   50  A    between atoms: _124  and  _125
REMARK   51  A    between atoms: _124  and  _127
REMARK   52  A    between atoms: _127  and  _128
REMARK   53  A    between atoms: _128  and  _240
REMARK   54  A    between atoms: _129  and  _131
REMARK   55  A    between atoms: _131  and  _132
REMARK   56  A    between atoms: _131  and  _134
REMARK   57  A    between atoms: _134  and  _135
REMARK   58  A    between atoms: _135  and  _136
REMARK   59  A    between atoms: _141  and  _143
REMARK   60  A    between atoms: _143  and  _144
REMARK   61  A    between atoms: _146  and  _148
REMARK   62  A    between atoms: _148  and  _149
REMARK   63  A    between atoms: _148  and  _151
REMARK   64  A    between atoms: _151  and  _152
REMARK   65  A    between atoms: _155  and  _157
REMARK   66  A    between atoms: _157  and  _158
REMARK   67  A    between atoms: _157  and  _160
REMARK   68  A    between atoms: _160  and  _161
REMARK   69  A    between atoms: _163  and  _165
REMARK   70  A    between atoms: _165  and  _166
REMARK   71  A    between atoms: _168  and  _170
REMARK   72  A    between atoms: _170  and  _171
REMARK   73  A    between atoms: _173  and  _175
REMARK   74  A    between atoms: _175  and  _176
REMARK   75  A    between atoms: _175  and  _178
REMARK   76  A    between atoms: _178  and  _179
REMARK   77  A    between atoms: _182  and  _184
REMARK   78  A    between atoms: _184  and  _185
REMARK   79  A    between atoms: _184  and  _187
REMARK   80  A    between atoms: _190  and  _192
REMARK   81  A    between atoms: _192  and  _193
REMARK   82  A    between atoms: _192  and  _195
REMARK   83  A    between atoms: _195  and  _196
REMARK   84  A    between atoms: _198  and  _200
REMARK   85  A    between atoms: _200  and  _201
REMARK   86  A    between atoms: _200  and  _203
REMARK   87  A    between atoms: _203  and  _204
REMARK   88  A    between atoms: _214  and  _216
REMARK   89  A    between atoms: _216  and  _217
REMARK   90  A    between atoms: _219  and  _221
REMARK   91  A    between atoms: _221  and  _222
REMARK   92  A    between atoms: _221  and  _224
REMARK   93  A    between atoms: _224  and  _225
REMARK   94  A    between atoms: _225  and  _226
REMARK   95  A    between atoms: _229  and  _231
REMARK   96  A    between atoms: _231  and  _232
REMARK   97  A    between atoms: _234  and  _236
REMARK   98  A    between atoms: _236  and  _237
REMARK   99  A    between atoms: _236  and  _239
REMARK  100  A    between atoms: _239  and  _240
REMARK  101  A    between atoms: _241  and  _243
REMARK  102  A    between atoms: _243  and  _244
REMARK  103  A    between atoms: _247  and  _249
REMARK  104  A    between atoms: _249  and  _250
REMARK  105  A    between atoms: _249  and  _252
REMARK  106  A    between atoms: _252  and  _253
REMARK  107  A    between atoms: _253  and  _254
REMARK  108  A    between atoms: _259  and  _261
REMARK  109  A    between atoms: _261  and  _262
REMARK  110  A    between atoms: _261  and  _264
REMARK  111  A    between atoms: _264  and  _265
REMARK  112  A    between atoms: _265  and  _266
REMARK  113  A    between atoms: _266  and  _267
REMARK  114  A    between atoms: _267  and  _268
REMARK  115  A    between atoms: _273  and  _274
REMARK  116  A    between atoms: _279  and  _281
REMARK  117  A    between atoms: _281  and  _282
REMARK  118  A    between atoms: _284  and  _286
REMARK  119  A    between atoms: _286  and  _287
REMARK  120  A    between atoms: _286  and  _289
REMARK  121  A    between atoms: _292  and  _294
REMARK  122  A    between atoms: _294  and  _295
REMARK  123  A    between atoms: _294  and  _297
REMARK  124  A    between atoms: _297  and  _298
REMARK  125  A    between atoms: _303  and  _304
REMARK                            x       y       z     vdW  Elec       q    Type
REMARK                         _______ _______ _______ _____ _____    ______ ____
ROOT
ATOM      1  CA  SER A   8      57.649  67.580 -25.437  0.00  0.00    +0.160 C 
ENDROOT
BRANCH   1   2
ATOM      2  C   SER A   8      58.452  66.681 -24.514  0.00  0.00    +0.242 C 
ATOM      3  O   SER A   8      59.499  67.077 -24.005  0.00  0.00    -0.273 OA
ATOM      4  N   GLY A   9      57.954  65.467 -24.311  0.00  0.00    -0.297 N 
ATOM      5  H   GLY A   9      57.056  65.210 -24.768  0.00  0.00    +0.150 HD
BRANCH   4   6
ATOM      6  CA  GLY A   9      58.622  64.485 -23.472  0.00  0.00    +0.149 C 
ATOM      7  CB  GLY A   9      59.926  64.042 -24.133  0.00  0.00    +0.031 C 
BRANCH   6   8
ATOM      8  C   GLY A   9      58.901  64.987 -22.062  0.00  0.00    +0.241 C 
ATOM      9  O   GLY A   9      59.920  64.638 -21.466  0.00  0.00    -0.273 OA
ATOM     10  N   GLY A  10      57.998  65.802 -21.531  0.00  0.00    -0.298 N 
ATOM     11  H   GLY A  10      57.160  66.069 -22.086  0.00  0.00    +0.150 HD
BRANCH  10  12
ATOM     12  CA  GLY A  10      58.162  66.328 -20.182  0.00  0.00    +0.137 C 
BRANCH  12  13
ATOM     13  C   GLY A  10      57.556  65.374 -19.160  0.00  0.00    +0.227 C 
ATOM     14  O   GLY A  10      56.563  64.694 -19.431  0.00  0.00    -0.286 OA
ENDBRANCH  12  13
BRANCH  12  15
ATOM     15  CB  GLY A  10      57.507  67.704 -20.057  0.00  0.00    +0.037 C 
BRANCH  15  16
ATOM     16  CG  GLY A  10      58.145  68.774 -20.930  0.00  0.00    +0.087 C 
BRANCH  16  17
ATOM     17  CD  GLY A  10      59.615  68.988 -20.611  0.00  0.00    +0.219 C 
ATOM     18  OE1 GLY A  10      59.973  69.394 -19.503  0.00  0.00    -0.275 OA
ATOM     19  NE2 GLY A  10      60.476  68.713 -21.586  0.00  0.00    -0.329 N 
ATOM     20 HE21 GLY A  10      61.496  68.838 -21.429  0.00  0.00    +0.145 HD
ATOM     21 HE22 GLY A  10      60.129  68.373 -22.505  0.00  0.00    +0.145 HD
ENDBRANCH  16  17
ENDBRANCH  15  16
ENDBRANCH  12  15
ENDBRANCH  10  12
ENDBRANCH   6   8
ENDBRANCH   4   6
ENDBRANCH   1   2
BRANCH   1  22
ATOM     22  N   SER A   8      57.397  68.883 -24.828  0.00  0.00    -0.296 N 
ATOM     23  H   SER A   8      58.150  69.343 -24.278  0.00  0.00    +0.150 HD
ATOM     24  C   ASP A   7      56.224  69.492 -24.963  0.00  0.00    +0.243 C 
ATOM     25  O   ASP A   7      55.293  69.009 -25.611  0.00  0.00    -0.273 OA
BRANCH  24  26
ATOM     26  CA  ASP A   7      56.055  70.835 -24.279  0.00  0.00    +0.176 C 
BRANCH  26  27
ATOM     27  N   ASP A   7      54.635  70.999 -24.044  0.00  0.00    -0.295 N 
ATOM     28  C   GLY A   6      54.025  70.284 -23.105  0.00  0.00    +0.241 C 
ATOM     29  O   GLY A   6      54.615  69.482 -22.377  0.00  0.00    -0.273 OA
ATOM     30  H   ASP A   7      54.091  71.679 -24.613  0.00  0.00    +0.150 HD
BRANCH  28  31
ATOM     31  CA  GLY A   6      52.525  70.497 -22.986  0.00  0.00    +0.149 C 
BRANCH  31  32
ATOM     32  N   GLY A   6      51.915  69.357 -23.657  0.00  0.00    -0.297 N 
ATOM     33  H   GLY A   6      51.741  68.479 -23.127  0.00  0.00    +0.150 HD
ATOM     34  C   GLN A   5      51.579  69.428 -24.939  0.00  0.00    +0.243 C 
ATOM     35  O   GLN A   5      51.720  70.453 -25.606  0.00  0.00    -0.273 OA
BRANCH  34  36
ATOM     36  CA  GLN A   5      50.978  68.186 -25.562  0.00  0.00    +0.176 C 
BRANCH  36  37
ATOM     37  N   GLN A   5      50.314  68.566 -26.793  0.00  0.00    -0.295 N 
ATOM     38  H   GLN A   5      50.329  69.562 -27.091  0.00  0.00    +0.150 HD
ATOM     39  C   TRP A   4      49.686  67.672 -27.550  0.00  0.00    +0.241 C 
ATOM     40  O   TRP A   4      49.629  66.474 -27.289  0.00  0.00    -0.273 OA
BRANCH  39  41
ATOM     41  CA  TRP A   4      49.026  68.240 -28.789  0.00  0.00    +0.153 C 
BRANCH  41  42
ATOM     42  N   TRP A   4      48.333  67.245 -29.601  0.00  0.00    -0.297 N 
ATOM     43  H   TRP A   4      48.026  66.347 -29.175  0.00  0.00    +0.150 HD
ATOM     44  C   SER A   3      48.095  67.489 -30.886  0.00  0.00    +0.243 C 
ATOM     45  O   SER A   3      48.439  68.537 -31.430  0.00  0.00    -0.273 OA
BRANCH  44  46
ATOM     46  CA  SER A   3      47.356  66.414 -31.682  0.00  0.00    +0.178 C 
BRANCH  46  47
ATOM     47  N   SER A   3      48.065  65.149 -31.861  0.00  0.00    -0.295 N 
ATOM     48  H   SER A   3      48.287  64.562 -31.032  0.00  0.00    +0.150 HD
ATOM     49  C   VAL A   2      48.431  64.739 -33.075  0.00  0.00    +0.241 C 
ATOM     50  O   VAL A   2      48.238  65.409 -34.088  0.00  0.00    -0.273 OA
BRANCH  49  51
ATOM     51  CA  VAL A   2      49.115  63.377 -33.171  0.00  0.00    +0.148 C 
BRANCH  51  52
ATOM     52  N   VAL A   2      48.288  62.528 -34.030  0.00  0.00    -0.297 N 
ATOM     53  C   ILE A   1      47.022  62.269 -33.721  0.00  0.00    +0.238 C 
ATOM     54  O   ILE A   1      46.491  62.696 -32.696  0.00  0.00    -0.274 OA
ATOM     55  H   VAL A   2      48.698  62.121 -34.895  0.00  0.00    +0.150 HD
BRANCH  53  56
ATOM     56  CA  ILE A   1      46.233  61.379 -34.683  0.00  0.00    +0.145 C 
BRANCH  56  57
ATOM     57  CB  ILE A   1      45.155  62.236 -35.385  0.00  0.00    +0.025 C 
ATOM     58  CG2 ILE A   1      45.813  63.371 -36.164  0.00  0.00    +0.002 C 
BRANCH  57  59
ATOM     59  CG1 ILE A   1      44.317  61.361 -36.323  0.00  0.00    +0.002 C 
ATOM     60  CD1 ILE A   1      43.116  62.076 -36.913  0.00  0.00    +0.000 C 
ENDBRANCH  57  59
ENDBRANCH  56  57
BRANCH  56  61
ATOM     61  N   ILE A   1      45.632  60.346 -33.847  0.00  0.00    -0.238 NA
ATOM     62  H   ILE A   1      45.103  60.641 -33.002  0.00  0.00    +0.142 HD
ENDBRANCH  56  61
ENDBRANCH  53  56
ENDBRANCH  51  52
BRANCH  51  63
ATOM     63  CB  VAL A   2      50.530  63.541 -33.760  0.00  0.00    +0.027 C 
ATOM     64  CG2 VAL A   2      51.373  64.433 -32.863  0.00  0.00    +0.002 C 
ATOM     65  CG1 VAL A   2      51.185  62.169 -33.921  0.00  0.00    +0.002 C 
ENDBRANCH  51  63
ENDBRANCH  49  51
ENDBRANCH  46  47
BRANCH  46  66
ATOM     66  CB  SER A   3      45.991  66.144 -31.038  0.00  0.00    +0.166 C 
BRANCH  66  67
ATOM     67  OG  SER A   3      45.218  67.332 -30.943  0.00  0.00    -0.380 OA
ATOM     68  H   SER A   3      45.070  67.702 -31.849  0.00  0.00    +0.211 HD
ENDBRANCH  66  67
ENDBRANCH  46  66
ENDBRANCH  44  46
ENDBRANCH  41  42
BRANCH  41  69
ATOM     69  CB  TRP A   4      48.064  69.365 -28.361  0.00  0.00    +0.057 C 
BRANCH  69  70
ATOM     70  CG  TRP A   4      46.893  68.919 -27.511  0.00  0.00    -0.002 A 
ATOM     71  CD2 TRP A   4      46.789  68.976 -26.077  0.00  0.00    +0.013 A 
ATOM     72  CE3 TRP A   4      47.644  69.414 -25.056  0.00  0.00    +0.001 A 
ATOM     73  CZ3 TRP A   4      47.210  69.322 -23.732  0.00  0.00    +0.000 A 
ATOM     74  CH2 TRP A   4      45.941  68.802 -23.421  0.00  0.00    +0.001 A 
ATOM     75  CZ2 TRP A   4      45.084  68.367 -24.402  0.00  0.00    +0.017 A 
ATOM     76  CE2 TRP A   4      45.520  68.459 -25.729  0.00  0.00    +0.056 A 
ATOM     77  NE1 TRP A   4      44.888  68.107 -26.892  0.00  0.00    -0.352 N 
ATOM     78  HE1 TRP A   4      43.935  67.697 -26.961  0.00  0.00    +0.166 HD
ATOM     79  CD1 TRP A   4      45.717  68.384 -27.953  0.00  0.00    +0.068 A 
ENDBRANCH  69  70
ENDBRANCH  41  69
ENDBRANCH  39  41
ENDBRANCH  36  37
ENDBRANCH  34  36
ENDBRANCH  31  32
BRANCH  31  80
ATOM     80  CB  GLY A   6      52.079  70.556 -21.522  0.00  0.00    +0.041 C 
BRANCH  80  81
ATOM     81  CG  GLY A   6      50.605  70.918 -21.365  0.00  0.00    +0.116 C 
BRANCH  81  82
ATOM     82  CD  GLY A   6      50.172  71.034 -19.917  0.00  0.00    +0.365 C 
ATOM     83  OE2 GLY A   6      50.844  71.757 -19.151  0.00  0.00    -0.246 OA
ATOM     84  OE1 GLY A   6      49.156  70.408 -19.550  0.00  0.00    -0.246 OA
ENDBRANCH  81  82
ENDBRANCH  80  81
ENDBRANCH  31  80
ENDBRANCH  28  31
ENDBRANCH  26  27
ENDBRANCH  24  26
ENDBRANCH   1  22
BRANCH   1  85
ATOM     85  CB  SER A   8      58.416  67.733 -26.749  0.00  0.00    +0.098 C 
BRANCH  85  86
ATOM     86  SG  SER A   8      57.510  68.643 -28.029  0.00  0.00    -0.080 S 
BRANCH  86  87
ATOM     87  SG  TRP A   4      58.686  68.478 -29.676  0.00  0.00    -0.080 S 
BRANCH  87  88
ATOM     88  CB  TRP A   4      58.118  66.942 -30.485  0.00  0.00    +0.098 C 
BRANCH  88  89
ATOM     89  CA  TRP A   4      56.611  66.815 -30.739  0.00  0.00    +0.160 C 
BRANCH  89  92
ATOM     90  C   SER A   3      56.137  64.588 -29.943  0.00  0.00    +0.241 C 
ATOM     91  O   SER A   3      56.259  64.969 -28.777  0.00  0.00    -0.273 OA
ATOM     92  N   TRP A   4      56.284  65.413 -30.971  0.00  0.00    -0.296 N 
ATOM     93  H   TRP A   4      56.166  65.060 -31.942  0.00  0.00    +0.150 HD
BRANCH  90  94
ATOM     94  CA  SER A   3      55.814  63.123 -30.236  0.00  0.00    +0.149 C 
ATOM     95  CB  SER A   3      54.411  62.983 -30.808  0.00  0.00    +0.031 C 
BRANCH  94  97
ATOM     96  C   VAL A   2      57.067  62.159 -28.406  0.00  0.00    +0.241 C 
ATOM     97  N   SER A   3      55.894  62.526 -28.910  0.00  0.00    -0.297 N 
ATOM     98  H   SER A   3      55.027  62.386 -28.354  0.00  0.00    +0.150 HD
ATOM     99  O   VAL A   2      58.117  62.212 -29.052  0.00  0.00    -0.273 OA
BRANCH  96 100
ATOM    100  CA  VAL A   2      57.055  61.627 -26.974  0.00  0.00    +0.160 C 
BRANCH 100 103
ATOM    101  C   ILE A   1      58.515  60.394 -25.492  0.00  0.00    +0.238 C 
ATOM    102  O   ILE A   1      57.638  60.349 -24.633  0.00  0.00    -0.274 OA
ATOM    103  N   VAL A   2      58.322  60.963 -26.680  0.00  0.00    -0.297 N 
ATOM    104  H   VAL A   2      59.073  60.935 -27.399  0.00  0.00    +0.150 HD
BRANCH 101 105
ATOM    105  CA  ILE A   1      59.880  59.765 -25.227  0.00  0.00    +0.145 C 
BRANCH 105 106
ATOM    106  N   ILE A   1      60.393  60.280 -23.958  0.00  0.00    -0.238 NA
ATOM    107  H   ILE A   1      59.750  60.332 -23.142  0.00  0.00    +0.142 HD
ENDBRANCH 105 106
BRANCH 105 108
ATOM    108  CB  ILE A   1      59.750  58.241 -25.156  0.00  0.00    +0.026 C 
BRANCH 108 109
ATOM    109  CG  ILE A   1      61.068  57.521 -24.903  0.00  0.00    -0.000 C 
BRANCH 109 110
ATOM    110  CD  ILE A   1      60.871  56.013 -24.831  0.00  0.00    -0.024 C 
BRANCH 110 111
ATOM    111  CE  ILE A   1      62.182  55.304 -24.533  0.00  0.00    -0.086 C 
BRANCH 111 112
ATOM    112  NZ  ILE A   1      62.015  53.826 -24.458  0.00  0.00    +0.380 N 
ATOM    113  HZ1 ILE A   1      61.341  53.593 -23.702  0.00  0.00    -0.089 HD
ATOM    114  HZ2 ILE A   1      62.934  53.384 -24.253  0.00  0.00    -0.089 HD
ATOM    115  HZ3 ILE A   1      61.654  53.473 -25.367  0.00  0.00    -0.089 HD
ENDBRANCH 111 112
ENDBRANCH 110 111
ENDBRANCH 109 110
ENDBRANCH 108 109
ENDBRANCH 105 108
ENDBRANCH 101 105
ENDBRANCH 100 103
BRANCH 100 116
ATOM    116  CB  VAL A   2      56.904  62.805 -25.995  0.00  0.00    +0.143 C 
BRANCH 116 117
ATOM    117  CG  VAL A   2      55.521  63.429 -25.999  0.00  0.00    +0.367 C 
ATOM    118  OD2 VAL A   2      55.366  64.474 -25.330  0.00  0.00    -0.246 OA
ATOM    119  OD1 VAL A   2      54.592  62.896 -26.636  0.00  0.00    -0.246 OA
ENDBRANCH 116 117
ENDBRANCH 100 116
ENDBRANCH  96 100
ENDBRANCH  94  97
ENDBRANCH  90  94
ENDBRANCH  89  92
BRANCH  89 120
ATOM    120  C   TRP A   4      56.182  67.669 -31.932  0.00  0.00    +0.242 C 
ATOM    121  N   GLN A   5      56.529  68.952 -31.898  0.00  0.00    -0.297 N 
ATOM    122  H   GLN A   5      57.065  69.305 -31.080  0.00  0.00    +0.150 HD
ATOM    123  O   TRP A   4      55.537  67.173 -32.856  0.00  0.00    -0.273 OA
BRANCH 121 124
ATOM    124  CA  GLN A   5      56.183  69.883 -32.970  0.00  0.00    +0.149 C 
BRANCH 124 125
ATOM    125  C   GLN A   5      56.634  69.337 -34.324  0.00  0.00    +0.241 C 
ATOM    126  O   GLN A   5      57.779  68.922 -34.480  0.00  0.00    -0.273 OA
ATOM    127  N   GLY A   6      55.734  69.349 -35.301  0.00  0.00    -0.295 N 
ATOM    128  H   GLY A   6      54.780  69.724 -35.123  0.00  0.00    +0.150 HD
BRANCH 127 129
ATOM    129  CA  GLY A   6      56.079  68.840 -36.616  0.00  0.00    +0.176 C 
BRANCH 129 130
ATOM    130  C   GLY A   6      55.534  67.441 -36.840  0.00  0.00    +0.243 C 
ATOM    131  N   ASP A   7      55.190  66.757 -35.752  0.00  0.00    -0.296 N 
ATOM    132  H   ASP A   7      55.321  67.195 -34.818  0.00  0.00    +0.150 HD
ATOM    133  O   GLY A   6      55.437  66.980 -37.977  0.00  0.00    -0.273 OA
BRANCH 131 134
ATOM    134  CA  ASP A   7      54.633  65.406 -35.832  0.00  0.00    +0.160 C 
BRANCH 134 135
ATOM    135  C   ASP A   7      53.109  65.466 -35.926  0.00  0.00    +0.241 C 
ATOM    136  N   SER A   8      52.539  66.634 -35.631  0.00  0.00    -0.295 N 
ATOM    137  H   SER A   8      53.141  67.441 -35.372  0.00  0.00    +0.150 HD
ATOM    138  O   ASP A   7      52.466  64.474 -36.260  0.00  0.00    -0.273 OA
BRANCH 136 139
ATOM    139  CA  SER A   8      51.090  66.808 -35.662  0.00  0.00    +0.178 C 
BRANCH 139 140
ATOM    140  C   SER A   8      50.435  66.292 -36.932  0.00  0.00    +0.243 C 
ATOM    141  N   GLY A   9      49.268  65.678 -36.760  0.00  0.00    -0.295 N 
ATOM    142  H   GLY A   9      48.884  65.577 -35.799  0.00  0.00    +0.150 HD
ATOM    143  O   SER A   8      50.970  66.458 -38.030  0.00  0.00    -0.273 OA
BRANCH 141 144
ATOM    144  CA  GLY A   9      48.518  65.145 -37.883  0.00  0.00    +0.176 C 
BRANCH 144 145
ATOM    145  C   GLY A   9      48.916  63.723 -38.219  0.00  0.00    +0.243 C 
ATOM    146  N   GLY A  10      50.075  63.313 -37.710  0.00  0.00    -0.296 N 
ATOM    147  H   GLY A  10      50.621  63.965 -37.112  0.00  0.00    +0.150 HD
ATOM    148  O   GLY A   9      48.183  63.015 -38.912  0.00  0.00    -0.273 OA
BRANCH 146 149
ATOM    149  CA  GLY A  10      50.602  61.982 -37.964  0.00  0.00    +0.163 C 
BRANCH 149 150
ATOM    150  C   GLY A  10      49.822  60.845 -37.337  0.00  0.00    +0.229 C 
ATOM    151  O   GLY A  10      48.970  61.062 -36.476  0.00  0.00    -0.286 OA
ENDBRANCH 149 150
ENDBRANCH 146 149
ENDBRANCH 144 145
ENDBRANCH 141 144
ENDBRANCH 139 140
BRANCH 139 152
ATOM    152  CB  SER A   8      50.727  68.285 -35.481  0.00  0.00    +0.166 C 
BRANCH 152 153
ATOM    153  OG  SER A   8      51.101  68.741 -34.194  0.00  0.00    -0.380 OA
ATOM    154  H   SER A   8      50.857  69.696 -34.100  0.00  0.00    +0.211 HD
ENDBRANCH 152 153
ENDBRANCH 139 152
ENDBRANCH 136 139
ENDBRANCH 134 135
BRANCH 134 155
ATOM    155  CB  ASP A   7      55.009  64.588 -34.590  0.00  0.00    +0.143 C 
BRANCH 155 156
ATOM    156  CG  ASP A   7      56.475  64.196 -34.562  0.00  0.00    +0.367 C 
ATOM    157  OD2 ASP A   7      57.055  64.179 -33.453  0.00  0.00    -0.246 OA
ATOM    158  OD1 ASP A   7      57.037  63.890 -35.635  0.00  0.00    -0.246 OA
ENDBRANCH 155 156
ENDBRANCH 134 155
ENDBRANCH 131 134
ENDBRANCH 129 130
ENDBRANCH 127 129
ENDBRANCH 124 125
BRANCH 124 159
ATOM    159  CB  GLN A   5      56.858  71.232 -32.719  0.00  0.00    +0.039 C 
BRANCH 159 160
ATOM    160  CG  GLN A   5      56.585  71.810 -31.342  0.00  0.00    +0.087 C 
BRANCH 160 161
ATOM    161  CD  GLN A   5      57.635  72.821 -30.920  0.00  0.00    +0.219 C 
ATOM    162  NE2 GLN A   5      57.211  74.061 -30.701  0.00  0.00    -0.329 N 
ATOM    163 HE21 GLN A   5      57.885  74.797 -30.408  0.00  0.00    +0.145 HD
ATOM    164 HE22 GLN A   5      56.205  74.296 -30.822  0.00  0.00    +0.145 HD
ATOM    165  OE1 GLN A   5      58.818  72.488 -30.791  0.00  0.00    -0.275 OA
ENDBRANCH 160 161
ENDBRANCH 159 160
ENDBRANCH 124 159
ENDBRANCH 121 124
ENDBRANCH  89 120
ENDBRANCH  88  89
ENDBRANCH  87  88
ENDBRANCH  86  87
ENDBRANCH  85  86
ENDBRANCH   1  85
TORSDOF 72
REMARK  Name = ../refined-set-2016/1v2l/1v2l_pocket.pdb
REMARK  125 active torsions:
REMARK  status: ('A' for Active; 'I' for Inactive)
REMARK    1  A    between atoms: _1  and  _5
REMARK    2  A    between atoms: _5  and  _6
REMARK    3  A    between atoms: _5  and  _8
REMARK    4  A    between atoms: _8  and  _9
REMARK    5  A    between atoms: _12  and  _14
REMARK    6  A    between atoms: _14  and  _15
REMARK    7  A    between atoms: _14  and  _17
REMARK    8  A    between atoms: _20  and  _22
REMARK    9  A    between atoms: _22  and  _23
REMARK   10  A    between atoms: _22  and  _25
REMARK   11  A    between atoms: _25  and  _26
REMARK   12  A    between atoms: _31  and  _33
REMARK   13  A    between atoms: _33  and  _34
REMARK   14  A    between atoms: _33  and  _36
REMARK   15  A    between atoms: _36  and  _37
REMARK   16  A    between atoms: _42  and  _43
REMARK   17  A    between atoms: _45  and  _47
REMARK   18  A    between atoms: _47  and  _48
REMARK   19  A    between atoms: _47  and  _50
REMARK   20  A    between atoms: _50  and  _51
REMARK   21  A    between atoms: _54  and  _56
REMARK   22  A    between atoms: _56  and  _57
REMARK   23  A    between atoms: _56  and  _59
REMARK   24  A    between atoms: _59  and  _60
REMARK   25  A    between atoms: _63  and  _65
REMARK   26  A    between atoms: _65  and  _66
REMARK   27  A    between atoms: _65  and  _68
REMARK   28  A    between atoms: _68  and  _69
REMARK   29  A    between atoms: _74  and  _76
REMARK   30  A    between atoms: _76  and  _77
REMARK   31  A    between atoms: _76  and  _79
REMARK   32  A    between atoms: _79  and  _80
REMARK   33  A    between atoms: _85  and  _86
REMARK   34  A    between atoms: _88  and  _90
REMARK   35  A    between atoms: _90  and  _91
REMARK   36  A    between atoms: _94  and  _96
REMARK   37  A    between atoms: _96  and  _97
REMARK   38  A    between atoms: _96  and  _99
REMARK   39  A    between atoms: _99  and  _100
REMARK   40  A    between atoms: _100  and  _101
REMARK   41  A    between atoms: _101  and  _102
REMARK   42  A    between atoms: _102  and  _103
REMARK   43  A    between atoms: _107  and  _109
REMARK   44  A    between atoms: _109  and  _110
REMARK   45  A    between atoms: _109  and  _112
REMARK   46  A    between atoms: _112  and  _113
REMARK   47  A    between atoms: _116  and  _118
REMARK   48  A    between atoms: _118  and  _119
REMARK   49  A    between atoms: _122  and  _124
REMARK   50  A    between atoms: _124  and  _125
REMARK   51  A    between atoms: _124  and  _127
REMARK   52  A    between atoms: _127  and  _128
REMARK   53  A    between atoms: _128  and  _240
REMARK   54  A    between atoms: _129  and  _131
REMARK   55  A    between atoms: _131  and  _132
REMARK   56  A    between atoms: _131  and  _134
REMARK   57  A    between atoms: _134  and  _135
REMARK   58  A    between atoms: _135  and  _136
REMARK   59  A    between atoms: _141  and  _143
REMARK   60  A    between atoms: _143  and  _144
REMARK   61  A    between atoms: _146  and  _148
REMARK   62  A    between atoms: _148  and  _149
REMARK   63  A    between atoms: _148  and  _151
REMARK   64  A    between atoms: _151  and  _152
REMARK   65  A    between atoms: _155  and  _157
REMARK   66  A    between atoms: _157  and  _158
REMARK   67  A    between atoms: _157  and  _160
REMARK   68  A    between atoms: _160  and  _161
REMARK   69  A    between atoms: _163  and  _165
REMARK   70  A    between atoms: _165  and  _166
REMARK   71  A    between atoms: _168  and  _170
REMARK   72  A    between atoms: _170  and  _171
REMARK   73  A    between atoms: _173  and  _175
REMARK   74  A    between atoms: _175  and  _176
REMARK   75  A    between atoms: _175  and  _178
REMARK   76  A    between atoms: _178  and  _179
REMARK   77  A    between atoms: _182  and  _184
REMARK   78  A    between atoms: _184  and  _185
REMARK   79  A    between atoms: _184  and  _187
REMARK   80  A    between atoms: _190  and  _192
REMARK   81  A    between atoms: _192  and  _193
REMARK   82  A    between atoms: _192  and  _195
REMARK   83  A    between atoms: _195  and  _196
REMARK   84  A    between atoms: _198  and  _200
REMARK   85  A    between atoms: _200  and  _201
REMARK   86  A    between atoms: _200  and  _203
REMARK   87  A    between atoms: _203  and  _204
REMARK   88  A    between atoms: _214  and  _216
REMARK   89  A    between atoms: _216  and  _217
REMARK   90  A    between atoms: _219  and  _221
REMARK   91  A    between atoms: _221  and  _222
REMARK   92  A    between atoms: _221  and  _224
REMARK   93  A    between atoms: _224  and  _225
REMARK   94  A    between atoms: _225  and  _226
REMARK   95  A    between atoms: _229  and  _231
REMARK   96  A    between atoms: _231  and  _232
REMARK   97  A    between atoms: _234  and  _236
REMARK   98  A    between atoms: _236  and  _237
REMARK   99  A    between atoms: _236  and  _239
REMARK  100  A    between atoms: _239  and  _240
REMARK  101  A    between atoms: _241  and  _243
REMARK  102  A    between atoms: _243  and  _244
REMARK  103  A    between atoms: _247  and  _249
REMARK  104  A    between atoms: _249  and  _250
REMARK  105  A    between atoms: _249  and  _252
REMARK  106  A    between atoms: _252  and  _253
REMARK  107  A    between atoms: _253  and  _254
REMARK  108  A    between atoms: _259  and  _261
REMARK  109  A    between atoms: _261  and  _262
REMARK  110  A    between atoms: _261  and  _264
REMARK  111  A    between atoms: _264  and  _265
REMARK  112  A    between atoms: _265  and  _266
REMARK  113  A    between atoms: _266  and  _267
REMARK  114  A    between atoms: _267  and  _268
REMARK  115  A    between atoms: _273  and  _274
REMARK  116  A    between atoms: _279  and  _281
REMARK  117  A    between atoms: _281  and  _282
REMARK  118  A    between atoms: _284  and  _286
REMARK  119  A    between atoms: _286  and  _287
REMARK  120  A    between atoms: _286  and  _289
REMARK  121  A    between atoms: _292  and  _294
REMARK  122  A    between atoms: _294  and  _295
REMARK  123  A    between atoms: _294  and  _297
REMARK  124  A    between atoms: _297  and  _298
REMARK  125  A    between atoms: _303  and  _304
REMARK                            x       y       z     vdW  Elec       q    Type
REMARK                         _______ _______ _______ _____ _____    ______ ____
ROOT
ATOM      1  C   GLY A   3      49.699  63.090 -25.511  0.00  0.00    +0.243 C 
ATOM      2  O   GLY A   3      49.216  62.090 -24.975  0.00  0.00    -0.273 OA
ATOM      3  N   VAL A   4      48.967  63.978 -26.181  0.00  0.00    -0.297 N 
ATOM      4  H   VAL A   4      49.435  64.802 -26.609  0.00  0.00    +0.150 HD
ENDROOT
BRANCH   1   5
ATOM      5  CA  GLY A   3      51.188  63.368 -25.435  0.00  0.00    +0.176 C 
BRANCH   5   8
ATOM      6  C   PRO A   2      51.624  63.249 -23.066  0.00  0.00    +0.241 C 
ATOM      7  O   PRO A   2      50.901  64.220 -22.844  0.00  0.00    -0.273 OA
ATOM      8  N   GLY A   3      51.825  62.758 -24.283  0.00  0.00    -0.295 N 
ATOM      9  H   GLY A   3      52.443  61.931 -24.411  0.00  0.00    +0.150 HD
BRANCH   6  15
ATOM     10  C   LYS A   1      52.982  64.458 -20.548  0.00  0.00    +0.241 C 
ATOM     11  N   PRO A   2      52.279  63.325 -20.692  0.00  0.00    -0.272 N 
ATOM     12  CD  PRO A   2      51.443  62.655 -19.682  0.00  0.00    +0.094 C 
ATOM     13  CG  PRO A   2      50.628  61.701 -20.530  0.00  0.00    +0.024 C 
ATOM     14  CB  PRO A   2      51.643  61.234 -21.525  0.00  0.00    +0.031 C 
ATOM     15  CA  PRO A   2      52.339  62.534 -21.923  0.00  0.00    +0.152 C 
ATOM     16  O   LYS A   1      53.717  64.887 -21.440  0.00  0.00    -0.273 OA
BRANCH  10  17
ATOM     17  CA  LYS A   1      52.836  65.202 -19.223  0.00  0.00    +0.145 C 
BRANCH  17  18
ATOM     18  N   LYS A   1      53.670  64.708 -18.134  0.00  0.00    -0.238 NA
ATOM     19  H   LYS A   1      54.684  64.540 -18.292  0.00  0.00    +0.142 HD
ENDBRANCH  17  18
BRANCH  17  20
ATOM     20  CB  LYS A   1      53.108  66.692 -19.425  0.00  0.00    +0.026 C 
BRANCH  20  21
ATOM     21  CG  LYS A   1      52.765  67.515 -18.192  0.00  0.00    -0.000 C 
BRANCH  21  22
ATOM     22  CD  LYS A   1      53.207  68.957 -18.321  0.00  0.00    -0.024 C 
BRANCH  22  23
ATOM     23  CE  LYS A   1      52.957  69.713 -17.024  0.00  0.00    -0.086 C 
BRANCH  23  24
ATOM     24  NZ  LYS A   1      53.436  71.124 -17.080  0.00  0.00    +0.380 N 
ATOM     25  HZ1 LYS A   1      53.241  71.591 -16.172  0.00  0.00    -0.089 HD
ATOM     26  HZ2 LYS A   1      54.460  71.134 -17.264  0.00  0.00    -0.089 HD
ATOM     27  HZ3 LYS A   1      52.941  71.627 -17.844  0.00  0.00    -0.089 HD
ENDBRANCH  23  24
ENDBRANCH  22  23
ENDBRANCH  21  22
ENDBRANCH  20  21
ENDBRANCH  17  20
ENDBRANCH  10  17
ENDBRANCH   6  15
ENDBRANCH   5   8
ENDBRANCH   1   5
BRANCH   3  28
ATOM     28  CA  VAL A   4      47.525  63.822 -26.328  0.00  0.00    +0.149 C 
BRANCH  28  29
ATOM     29  C   VAL A   4      47.198  63.591 -27.798  0.00  0.00    +0.241 C 
ATOM     30  N   TYR A   5      46.305  62.640 -28.044  0.00  0.00    -0.298 N 
ATOM     31  H   TYR A   5      45.849  62.160 -27.242  0.00  0.00    +0.150 HD
ATOM     32  O   VAL A   4      47.730  64.266 -28.683  0.00  0.00    -0.273 OA
BRANCH  30  33
ATOM     33  CA  TYR A   5      45.943  62.247 -29.396  0.00  0.00    +0.141 C 
BRANCH  33  34
ATOM     34  C   TYR A   5      44.442  62.240 -29.662  0.00  0.00    +0.227 C 
ATOM     35  O   TYR A   5      43.643  61.969 -28.766  0.00  0.00    -0.286 OA
ENDBRANCH  33  34
BRANCH  33  36
ATOM     36  CB  TYR A   5      46.513  60.850 -29.647  0.00  0.00    +0.054 C 
BRANCH  36  37
ATOM     37  CG  TYR A   5      48.009  60.792 -29.455  0.00  0.00    -0.020 A 
ATOM     38  CD2 TYR A   5      48.566  60.584 -28.192  0.00  0.00    -0.001 A 
ATOM     39  CE2 TYR A   5      49.947  60.616 -28.000  0.00  0.00    +0.036 A 
ATOM     40  CZ  TYR A   5      50.782  60.852 -29.083  0.00  0.00    +0.134 A 
ATOM     41  CE1 TYR A   5      50.251  61.051 -30.343  0.00  0.00    +0.036 A 
ATOM     42  CD1 TYR A   5      48.871  61.021 -30.523  0.00  0.00    -0.001 A 
BRANCH  40  43
ATOM     43  OH  TYR A   5      52.147  60.905 -28.912  0.00  0.00    -0.506 OA
ATOM     44  HH  TYR A   5      52.467  60.040 -28.551  0.00  0.00    +0.292 HD
ENDBRANCH  40  43
ENDBRANCH  36  37
ENDBRANCH  33  36
ENDBRANCH  30  33
ENDBRANCH  28  29
BRANCH  28  45
ATOM     45  CB  VAL A   4      46.786  65.063 -25.798  0.00  0.00    +0.027 C 
ATOM     46  CG2 VAL A   4      47.212  65.323 -24.361  0.00  0.00    +0.002 C 
ATOM     47  CG1 VAL A   4      45.277  64.854 -25.877  0.00  0.00    +0.002 C 
ENDBRANCH  28  45
ENDBRANCH   3  28
TORSDOF 18
REMARK  Name = ../refined-set-2016/1v2l/1v2l_pocket.pdb
REMARK  125 active torsions:
REMARK  status: ('A' for Active; 'I' for Inactive)
REMARK    1  A    between atoms: _1  and  _5
REMARK    2  A    between atoms: _5  and  _6
REMARK    3  A    between atoms: _5  and  _8
REMARK    4  A    between atoms: _8  and  _9
REMARK    5  A    between atoms: _12  and  _14
REMARK    6  A    between atoms: _14  and  _15
REMARK    7  A    between atoms: _14  and  _17
REMARK    8  A    between atoms: _20  and  _22
REMARK    9  A    between atoms: _22  and  _23
REMARK   10  A    between atoms: _22  and  _25
REMARK   11  A    between atoms: _25  and  _26
REMARK   12  A    between atoms: _31  and  _33
REMARK   13  A    between atoms: _33  and  _34
REMARK   14  A    between atoms: _33  and  _36
REMARK   15  A    between atoms: _36  and  _37
REMARK   16  A    between atoms: _42  and  _43
REMARK   17  A    between atoms: _45  and  _47
REMARK   18  A    between atoms: _47  and  _48
REMARK   19  A    between atoms: _47  and  _50
REMARK   20  A    between atoms: _50  and  _51
REMARK   21  A    between atoms: _54  and  _56
REMARK   22  A    between atoms: _56  and  _57
REMARK   23  A    between atoms: _56  and  _59
REMARK   24  A    between atoms: _59  and  _60
REMARK   25  A    between atoms: _63  and  _65
REMARK   26  A    between atoms: _65  and  _66
REMARK   27  A    between atoms: _65  and  _68
REMARK   28  A    between atoms: _68  and  _69
REMARK   29  A    between atoms: _74  and  _76
REMARK   30  A    between atoms: _76  and  _77
REMARK   31  A    between atoms: _76  and  _79
REMARK   32  A    between atoms: _79  and  _80
REMARK   33  A    between atoms: _85  and  _86
REMARK   34  A    between atoms: _88  and  _90
REMARK   35  A    between atoms: _90  and  _91
REMARK   36  A    between atoms: _94  and  _96
REMARK   37  A    between atoms: _96  and  _97
REMARK   38  A    between atoms: _96  and  _99
REMARK   39  A    between atoms: _99  and  _100
REMARK   40  A    between atoms: _100  and  _101
REMARK   41  A    between atoms: _101  and  _102
REMARK   42  A    between atoms: _102  and  _103
REMARK   43  A    between atoms: _107  and  _109
REMARK   44  A    between atoms: _109  and  _110
REMARK   45  A    between atoms: _109  and  _112
REMARK   46  A    between atoms: _112  and  _113
REMARK   47  A    between atoms: _116  and  _118
REMARK   48  A    between atoms: _118  and  _119
REMARK   49  A    between atoms: _122  and  _124
REMARK   50  A    between atoms: _124  and  _125
REMARK   51  A    between atoms: _124  and  _127
REMARK   52  A    between atoms: _127  and  _128
REMARK   53  A    between atoms: _128  and  _240
REMARK   54  A    between atoms: _129  and  _131
REMARK   55  A    between atoms: _131  and  _132
REMARK   56  A    between atoms: _131  and  _134
REMARK   57  A    between atoms: _134  and  _135
REMARK   58  A    between atoms: _135  and  _136
REMARK   59  A    between atoms: _141  and  _143
REMARK   60  A    between atoms: _143  and  _144
REMARK   61  A    between atoms: _146  and  _148
REMARK   62  A    between atoms: _148  and  _149
REMARK   63  A    between atoms: _148  and  _151
REMARK   64  A    between atoms: _151  and  _152
REMARK   65  A    between atoms: _155  and  _157
REMARK   66  A    between atoms: _157  and  _158
REMARK   67  A    between atoms: _157  and  _160
REMARK   68  A    between atoms: _160  and  _161
REMARK   69  A    between atoms: _163  and  _165
REMARK   70  A    between atoms: _165  and  _166
REMARK   71  A    between atoms: _168  and  _170
REMARK   72  A    between atoms: _170  and  _171
REMARK   73  A    between atoms: _173  and  _175
REMARK   74  A    between atoms: _175  and  _176
REMARK   75  A    between atoms: _175  and  _178
REMARK   76  A    between atoms: _178  and  _179
REMARK   77  A    between atoms: _182  and  _184
REMARK   78  A    between atoms: _184  and  _185
REMARK   79  A    between atoms: _184  and  _187
REMARK   80  A    between atoms: _190  and  _192
REMARK   81  A    between atoms: _192  and  _193
REMARK   82  A    between atoms: _192  and  _195
REMARK   83  A    between atoms: _195  and  _196
REMARK   84  A    between atoms: _198  and  _200
REMARK   85  A    between atoms: _200  and  _201
REMARK   86  A    between atoms: _200  and  _203
REMARK   87  A    between atoms: _203  and  _204
REMARK   88  A    between atoms: _214  and  _216
REMARK   89  A    between atoms: _216  and  _217
REMARK   90  A    between atoms: _219  and  _221
REMARK   91  A    between atoms: _221  and  _222
REMARK   92  A    between atoms: _221  and  _224
REMARK   93  A    between atoms: _224  and  _225
REMARK   94  A    between atoms: _225  and  _226
REMARK   95  A    between atoms: _229  and  _231
REMARK   96  A    between atoms: _231  and  _232
REMARK   97  A    between atoms: _234  and  _236
REMARK   98  A    between atoms: _236  and  _237
REMARK   99  A    between atoms: _236  and  _239
REMARK  100  A    between atoms: _239  and  _240
REMARK  101  A    between atoms: _241  and  _243
REMARK  102  A    between atoms: _243  and  _244
REMARK  103  A    between atoms: _247  and  _249
REMARK  104  A    between atoms: _249  and  _250
REMARK  105  A    between atoms: _249  and  _252
REMARK  106  A    between atoms: _252  and  _253
REMARK  107  A    between atoms: _253  and  _254
REMARK  108  A    between atoms: _259  and  _261
REMARK  109  A    between atoms: _261  and  _262
REMARK  110  A    between atoms: _261  and  _264
REMARK  111  A    between atoms: _264  and  _265
REMARK  112  A    between atoms: _265  and  _266
REMARK  113  A    between atoms: _266  and  _267
REMARK  114  A    between atoms: _267  and  _268
REMARK  115  A    between atoms: _273  and  _274
REMARK  116  A    between atoms: _279  and  _281
REMARK  117  A    between atoms: _281  and  _282
REMARK  118  A    between atoms: _284  and  _286
REMARK  119  A    between atoms: _286  and  _287
REMARK  120  A    between atoms: _286  and  _289
REMARK  121  A    between atoms: _292  and  _294
REMARK  122  A    between atoms: _294  and  _295
REMARK  123  A    between atoms: _294  and  _297
REMARK  124  A    between atoms: _297  and  _298
REMARK  125  A    between atoms: _303  and  _304
REMARK                            x       y       z     vdW  Elec       q    Type
REMARK                         _______ _______ _______ _____ _____    ______ ____
ROOT
ATOM      1  O   HOH     1      50.600  64.193 -29.318  0.00  0.00    +0.000 OA
ENDROOT
TORSDOF 0
REMARK  Name = ../refined-set-2016/1v2l/1v2l_pocket.pdb
REMARK  125 active torsions:
REMARK  status: ('A' for Active; 'I' for Inactive)
REMARK    1  A    between atoms: _1  and  _5
REMARK    2  A    between atoms: _5  and  _6
REMARK    3  A    between atoms: _5  and  _8
REMARK    4  A    between atoms: _8  and  _9
REMARK    5  A    between atoms: _12  and  _14
REMARK    6  A    between atoms: _14  and  _15
REMARK    7  A    between atoms: _14  and  _17
REMARK    8  A    between atoms: _20  and  _22
REMARK    9  A    between atoms: _22  and  _23
REMARK   10  A    between atoms: _22  and  _25
REMARK   11  A    between atoms: _25  and  _26
REMARK   12  A    between atoms: _31  and  _33
REMARK   13  A    between atoms: _33  and  _34
REMARK   14  A    between atoms: _33  and  _36
REMARK   15  A    between atoms: _36  and  _37
REMARK   16  A    between atoms: _42  and  _43
REMARK   17  A    between atoms: _45  and  _47
REMARK   18  A    between atoms: _47  and  _48
REMARK   19  A    between atoms: _47  and  _50
REMARK   20  A    between atoms: _50  and  _51
REMARK   21  A    between atoms: _54  and  _56
REMARK   22  A    between atoms: _56  and  _57
REMARK   23  A    between atoms: _56  and  _59
REMARK   24  A    between atoms: _59  and  _60
REMARK   25  A    between atoms: _63  and  _65
REMARK   26  A    between atoms: _65  and  _66
REMARK   27  A    between atoms: _65  and  _68
REMARK   28  A    between atoms: _68  and  _69
REMARK   29  A    between atoms: _74  and  _76
REMARK   30  A    between atoms: _76  and  _77
REMARK   31  A    between atoms: _76  and  _79
REMARK   32  A    between atoms: _79  and  _80
REMARK   33  A    between atoms: _85  and  _86
REMARK   34  A    between atoms: _88  and  _90
REMARK   35  A    between atoms: _90  and  _91
REMARK   36  A    between atoms: _94  and  _96
REMARK   37  A    between atoms: _96  and  _97
REMARK   38  A    between atoms: _96  and  _99
REMARK   39  A    between atoms: _99  and  _100
REMARK   40  A    between atoms: _100  and  _101
REMARK   41  A    between atoms: _101  and  _102
REMARK   42  A    between atoms: _102  and  _103
REMARK   43  A    between atoms: _107  and  _109
REMARK   44  A    between atoms: _109  and  _110
REMARK   45  A    between atoms: _109  and  _112
REMARK   46  A    between atoms: _112  and  _113
REMARK   47  A    between atoms: _116  and  _118
REMARK   48  A    between atoms: _118  and  _119
REMARK   49  A    between atoms: _122  and  _124
REMARK   50  A    between atoms: _124  and  _125
REMARK   51  A    between atoms: _124  and  _127
REMARK   52  A    between atoms: _127  and  _128
REMARK   53  A    between atoms: _128  and  _240
REMARK   54  A    between atoms: _129  and  _131
REMARK   55  A    between atoms: _131  and  _132
REMARK   56  A    between atoms: _131  and  _134
REMARK   57  A    between atoms: _134  and  _135
REMARK   58  A    between atoms: _135  and  _136
REMARK   59  A    between atoms: _141  and  _143
REMARK   60  A    between atoms: _143  and  _144
REMARK   61  A    between atoms: _146  and  _148
REMARK   62  A    between atoms: _148  and  _149
REMARK   63  A    between atoms: _148  and  _151
REMARK   64  A    between atoms: _151  and  _152
REMARK   65  A    between atoms: _155  and  _157
REMARK   66  A    between atoms: _157  and  _158
REMARK   67  A    between atoms: _157  and  _160
REMARK   68  A    between atoms: _160  and  _161
REMARK   69  A    between atoms: _163  and  _165
REMARK   70  A    between atoms: _165  and  _166
REMARK   71  A    between atoms: _168  and  _170
REMARK   72  A    between atoms: _170  and  _171
REMARK   73  A    between atoms: _173  and  _175
REMARK   74  A    between atoms: _175  and  _176
REMARK   75  A    between atoms: _175  and  _178
REMARK   76  A    between atoms: _178  and  _179
REMARK   77  A    between atoms: _182  and  _184
REMARK   78  A    between atoms: _184  and  _185
REMARK   79  A    between atoms: _184  and  _187
REMARK   80  A    between atoms: _190  and  _192
REMARK   81  A    between atoms: _192  and  _193
REMARK   82  A    between atoms: _192  and  _195
REMARK   83  A    between atoms: _195  and  _196
REMARK   84  A    between atoms: _198  and  _200
REMARK   85  A    between atoms: _200  and  _201
REMARK   86  A    between atoms: _200  and  _203
REMARK   87  A    between atoms: _203  and  _204
REMARK   88  A    between atoms: _214  and  _216
REMARK   89  A    between atoms: _216  and  _217
REMARK   90  A    between atoms: _219  and  _221
REMARK   91  A    between atoms: _221  and  _222
REMARK   92  A    between atoms: _221  and  _224
REMARK   93  A    between atoms: _224  and  _225
REMARK   94  A    between atoms: _225  and  _226
REMARK   95  A    between atoms: _229  and  _231
REMARK   96  A    between atoms: _231  and  _232
REMARK   97  A    between atoms: _234  and  _236
REMARK   98  A    between atoms: _236  and  _237
REMARK   99  A    between atoms: _236  and  _239
REMARK  100  A    between atoms: _239  and  _240
REMARK  101  A    between atoms: _241  and  _243
REMARK  102  A    between atoms: _243  and  _244
REMARK  103  A    between atoms: _247  and  _249
REMARK  104  A    between atoms: _249  and  _250
REMARK  105  A    between atoms: _249  and  _252
REMARK  106  A    between atoms: _252  and  _253
REMARK  107  A    between atoms: _253  and  _254
REMARK  108  A    between atoms: _259  and  _261
REMARK  109  A    between atoms: _261  and  _262
REMARK  110  A    between atoms: _261  and  _264
REMARK  111  A    between atoms: _264  and  _265
REMARK  112  A    between atoms: _265  and  _266
REMARK  113  A    between atoms: _266  and  _267
REMARK  114  A    between atoms: _267  and  _268
REMARK  115  A    between atoms: _273  and  _274
REMARK  116  A    between atoms: _279  and  _281
REMARK  117  A    between atoms: _281  and  _282
REMARK  118  A    between atoms: _284  and  _286
REMARK  119  A    between atoms: _286  and  _287
REMARK  120  A    between atoms: _286  and  _289
REMARK  121  A    between atoms: _292  and  _294
REMARK  122  A    between atoms: _294  and  _295
REMARK  123  A    between atoms: _294  and  _297
REMARK  124  A    between atoms: _297  and  _298
REMARK  125  A    between atoms: _303  and  _304
REMARK                            x       y       z     vdW  Elec       q    Type
REMARK                         _______ _______ _______ _____ _____    ______ ____
ROOT
ATOM      1  O   HOH     1      53.408  60.530 -26.672  0.00  0.00    +0.000 OA
ENDROOT
TORSDOF 0
REMARK  Name = ../refined-set-2016/1v2l/1v2l_pocket.pdb
REMARK  125 active torsions:
REMARK  status: ('A' for Active; 'I' for Inactive)
REMARK    1  A    between atoms: _1  and  _5
REMARK    2  A    between atoms: _5  and  _6
REMARK    3  A    between atoms: _5  and  _8
REMARK    4  A    between atoms: _8  and  _9
REMARK    5  A    between atoms: _12  and  _14
REMARK    6  A    between atoms: _14  and  _15
REMARK    7  A    between atoms: _14  and  _17
REMARK    8  A    between atoms: _20  and  _22
REMARK    9  A    between atoms: _22  and  _23
REMARK   10  A    between atoms: _22  and  _25
REMARK   11  A    between atoms: _25  and  _26
REMARK   12  A    between atoms: _31  and  _33
REMARK   13  A    between atoms: _33  and  _34
REMARK   14  A    between atoms: _33  and  _36
REMARK   15  A    between atoms: _36  and  _37
REMARK   16  A    between atoms: _42  and  _43
REMARK   17  A    between atoms: _45  and  _47
REMARK   18  A    between atoms: _47  and  _48
REMARK   19  A    between atoms: _47  and  _50
REMARK   20  A    between atoms: _50  and  _51
REMARK   21  A    between atoms: _54  and  _56
REMARK   22  A    between atoms: _56  and  _57
REMARK   23  A    between atoms: _56  and  _59
REMARK   24  A    between atoms: _59  and  _60
REMARK   25  A    between atoms: _63  and  _65
REMARK   26  A    between atoms: _65  and  _66
REMARK   27  A    between atoms: _65  and  _68
REMARK   28  A    between atoms: _68  and  _69
REMARK   29  A    between atoms: _74  and  _76
REMARK   30  A    between atoms: _76  and  _77
REMARK   31  A    between atoms: _76  and  _79
REMARK   32  A    between atoms: _79  and  _80
REMARK   33  A    between atoms: _85  and  _86
REMARK   34  A    between atoms: _88  and  _90
REMARK   35  A    between atoms: _90  and  _91
REMARK   36  A    between atoms: _94  and  _96
REMARK   37  A    between atoms: _96  and  _97
REMARK   38  A    between atoms: _96  and  _99
REMARK   39  A    between atoms: _99  and  _100
REMARK   40  A    between atoms: _100  and  _101
REMARK   41  A    between atoms: _101  and  _102
REMARK   42  A    between atoms: _102  and  _103
REMARK   43  A    between atoms: _107  and  _109
REMARK   44  A    between atoms: _109  and  _110
REMARK   45  A    between atoms: _109  and  _112
REMARK   46  A    between atoms: _112  and  _113
REMARK   47  A    between atoms: _116  and  _118
REMARK   48  A    between atoms: _118  and  _119
REMARK   49  A    between atoms: _122  and  _124
REMARK   50  A    between atoms: _124  and  _125
REMARK   51  A    between atoms: _124  and  _127
REMARK   52  A    between atoms: _127  and  _128
REMARK   53  A    between atoms: _128  and  _240
REMARK   54  A    between atoms: _129  and  _131
REMARK   55  A    between atoms: _131  and  _132
REMARK   56  A    between atoms: _131  and  _134
REMARK   57  A    between atoms: _134  and  _135
REMARK   58  A    between atoms: _135  and  _136
REMARK   59  A    between atoms: _141  and  _143
REMARK   60  A    between atoms: _143  and  _144
REMARK   61  A    between atoms: _146  and  _148
REMARK   62  A    between atoms: _148  and  _149
REMARK   63  A    between atoms: _148  and  _151
REMARK   64  A    between atoms: _151  and  _152
REMARK   65  A    between atoms: _155  and  _157
REMARK   66  A    between atoms: _157  and  _158
REMARK   67  A    between atoms: _157  and  _160
REMARK   68  A    between atoms: _160  and  _161
REMARK   69  A    between atoms: _163  and  _165
REMARK   70  A    between atoms: _165  and  _166
REMARK   71  A    between atoms: _168  and  _170
REMARK   72  A    between atoms: _170  and  _171
REMARK   73  A    between atoms: _173  and  _175
REMARK   74  A    between atoms: _175  and  _176
REMARK   75  A    between atoms: _175  and  _178
REMARK   76  A    between atoms: _178  and  _179
REMARK   77  A    between atoms: _182  and  _184
REMARK   78  A    between atoms: _184  and  _185
REMARK   79  A    between atoms: _184  and  _187
REMARK   80  A    between atoms: _190  and  _192
REMARK   81  A    between atoms: _192  and  _193
REMARK   82  A    between atoms: _192  and  _195
REMARK   83  A    between atoms: _195  and  _196
REMARK   84  A    between atoms: _198  and  _200
REMARK   85  A    between atoms: _200  and  _201
REMARK   86  A    between atoms: _200  and  _203
REMARK   87  A    between atoms: _203  and  _204
REMARK   88  A    between atoms: _214  and  _216
REMARK   89  A    between atoms: _216  and  _217
REMARK   90  A    between atoms: _219  and  _221
REMARK   91  A    between atoms: _221  and  _222
REMARK   92  A    between atoms: _221  and  _224
REMARK   93  A    between atoms: _224  and  _225
REMARK   94  A    between atoms: _225  and  _226
REMARK   95  A    between atoms: _229  and  _231
REMARK   96  A    between atoms: _231  and  _232
REMARK   97  A    between atoms: _234  and  _236
REMARK   98  A    between atoms: _236  and  _237
REMARK   99  A    between atoms: _236  and  _239
REMARK  100  A    between atoms: _239  and  _240
REMARK  101  A    between atoms: _241  and  _243
REMARK  102  A    between atoms: _243  and  _244
REMARK  103  A    between atoms: _247  and  _249
REMARK  104  A    between atoms: _249  and  _250
REMARK  105  A    between atoms: _249  and  _252
REMARK  106  A    between atoms: _252  and  _253
REMARK  107  A    between atoms: _253  and  _254
REMARK  108  A    between atoms: _259  and  _261
REMARK  109  A    between atoms: _261  and  _262
REMARK  110  A    between atoms: _261  and  _264
REMARK  111  A    between atoms: _264  and  _265
REMARK  112  A    between atoms: _265  and  _266
REMARK  113  A    between atoms: _266  and  _267
REMARK  114  A    between atoms: _267  and  _268
REMARK  115  A    between atoms: _273  and  _274
REMARK  116  A    between atoms: _279  and  _281
REMARK  117  A    between atoms: _281  and  _282
REMARK  118  A    between atoms: _284  and  _286
REMARK  119  A    between atoms: _286  and  _287
REMARK  120  A    between atoms: _286  and  _289
REMARK  121  A    between atoms: _292  and  _294
REMARK  122  A    between atoms: _294  and  _295
REMARK  123  A    between atoms: _294  and  _297
REMARK  124  A    between atoms: _297  and  _298
REMARK  125  A    between atoms: _303  and  _304
REMARK                            x       y       z     vdW  Elec       q    Type
REMARK                         _______ _______ _______ _____ _____    ______ ____
ROOT
ATOM      1  O   HOH     1      55.545  66.738 -22.607  0.00  0.00    +0.000 OA
ENDROOT
TORSDOF 0
REMARK  Name = ../refined-set-2016/1v2l/1v2l_pocket.pdb
REMARK  125 active torsions:
REMARK  status: ('A' for Active; 'I' for Inactive)
REMARK    1  A    between atoms: _1  and  _5
REMARK    2  A    between atoms: _5  and  _6
REMARK    3  A    between atoms: _5  and  _8
REMARK    4  A    between atoms: _8  and  _9
REMARK    5  A    between atoms: _12  and  _14
REMARK    6  A    between atoms: _14  and  _15
REMARK    7  A    between atoms: _14  and  _17
REMARK    8  A    between atoms: _20  and  _22
REMARK    9  A    between atoms: _22  and  _23
REMARK   10  A    between atoms: _22  and  _25
REMARK   11  A    between atoms: _25  and  _26
REMARK   12  A    between atoms: _31  and  _33
REMARK   13  A    between atoms: _33  and  _34
REMARK   14  A    between atoms: _33  and  _36
REMARK   15  A    between atoms: _36  and  _37
REMARK   16  A    between atoms: _42  and  _43
REMARK   17  A    between atoms: _45  and  _47
REMARK   18  A    between atoms: _47  and  _48
REMARK   19  A    between atoms: _47  and  _50
REMARK   20  A    between atoms: _50  and  _51
REMARK   21  A    between atoms: _54  and  _56
REMARK   22  A    between atoms: _56  and  _57
REMARK   23  A    between atoms: _56  and  _59
REMARK   24  A    between atoms: _59  and  _60
REMARK   25  A    between atoms: _63  and  _65
REMARK   26  A    between atoms: _65  and  _66
REMARK   27  A    between atoms: _65  and  _68
REMARK   28  A    between atoms: _68  and  _69
REMARK   29  A    between atoms: _74  and  _76
REMARK   30  A    between atoms: _76  and  _77
REMARK   31  A    between atoms: _76  and  _79
REMARK   32  A    between atoms: _79  and  _80
REMARK   33  A    between atoms: _85  and  _86
REMARK   34  A    between atoms: _88  and  _90
REMARK   35  A    between atoms: _90  and  _91
REMARK   36  A    between atoms: _94  and  _96
REMARK   37  A    between atoms: _96  and  _97
REMARK   38  A    between atoms: _96  and  _99
REMARK   39  A    between atoms: _99  and  _100
REMARK   40  A    between atoms: _100  and  _101
REMARK   41  A    between atoms: _101  and  _102
REMARK   42  A    between atoms: _102  and  _103
REMARK   43  A    between atoms: _107  and  _109
REMARK   44  A    between atoms: _109  and  _110
REMARK   45  A    between atoms: _109  and  _112
REMARK   46  A    between atoms: _112  and  _113
REMARK   47  A    between atoms: _116  and  _118
REMARK   48  A    between atoms: _118  and  _119
REMARK   49  A    between atoms: _122  and  _124
REMARK   50  A    between atoms: _124  and  _125
REMARK   51  A    between atoms: _124  and  _127
REMARK   52  A    between atoms: _127  and  _128
REMARK   53  A    between atoms: _128  and  _240
REMARK   54  A    between atoms: _129  and  _131
REMARK   55  A    between atoms: _131  and  _132
REMARK   56  A    between atoms: _131  and  _134
REMARK   57  A    between atoms: _134  and  _135
REMARK   58  A    between atoms: _135  and  _136
REMARK   59  A    between atoms: _141  and  _143
REMARK   60  A    between atoms: _143  and  _144
REMARK   61  A    between atoms: _146  and  _148
REMARK   62  A    between atoms: _148  and  _149
REMARK   63  A    between atoms: _148  and  _151
REMARK   64  A    between atoms: _151  and  _152
REMARK   65  A    between atoms: _155  and  _157
REMARK   66  A    between atoms: _157  and  _158
REMARK   67  A    between atoms: _157  and  _160
REMARK   68  A    between atoms: _160  and  _161
REMARK   69  A    between atoms: _163  and  _165
REMARK   70  A    between atoms: _165  and  _166
REMARK   71  A    between atoms: _168  and  _170
REMARK   72  A    between atoms: _170  and  _171
REMARK   73  A    between atoms: _173  and  _175
REMARK   74  A    between atoms: _175  and  _176
REMARK   75  A    between atoms: _175  and  _178
REMARK   76  A    between atoms: _178  and  _179
REMARK   77  A    between atoms: _182  and  _184
REMARK   78  A    between atoms: _184  and  _185
REMARK   79  A    between atoms: _184  and  _187
REMARK   80  A    between atoms: _190  and  _192
REMARK   81  A    between atoms: _192  and  _193
REMARK   82  A    between atoms: _192  and  _195
REMARK   83  A    between atoms: _195  and  _196
REMARK   84  A    between atoms: _198  and  _200
REMARK   85  A    between atoms: _200  and  _201
REMARK   86  A    between atoms: _200  and  _203
REMARK   87  A    between atoms: _203  and  _204
REMARK   88  A    between atoms: _214  and  _216
REMARK   89  A    between atoms: _216  and  _217
REMARK   90  A    between atoms: _219  and  _221
REMARK   91  A    between atoms: _221  and  _222
REMARK   92  A    between atoms: _221  and  _224
REMARK   93  A    between atoms: _224  and  _225
REMARK   94  A    between atoms: _225  and  _226
REMARK   95  A    between atoms: _229  and  _231
REMARK   96  A    between atoms: _231  and  _232
REMARK   97  A    between atoms: _234  and  _236
REMARK   98  A    between atoms: _236  and  _237
REMARK   99  A    between atoms: _236  and  _239
REMARK  100  A    between atoms: _239  and  _240
REMARK  101  A    between atoms: _241  and  _243
REMARK  102  A    between atoms: _243  and  _244
REMARK  103  A    between atoms: _247  and  _249
REMARK  104  A    between atoms: _249  and  _250
REMARK  105  A    between atoms: _249  and  _252
REMARK  106  A    between atoms: _252  and  _253
REMARK  107  A    between atoms: _253  and  _254
REMARK  108  A    between atoms: _259  and  _261
REMARK  109  A    between atoms: _261  and  _262
REMARK  110  A    between atoms: _261  and  _264
REMARK  111  A    between atoms: _264  and  _265
REMARK  112  A    between atoms: _265  and  _266
REMARK  113  A    between atoms: _266  and  _267
REMARK  114  A    between atoms: _267  and  _268
REMARK  115  A    between atoms: _273  and  _274
REMARK  116  A    between atoms: _279  and  _281
REMARK  117  A    between atoms: _281  and  _282
REMARK  118  A    between atoms: _284  and  _286
REMARK  119  A    between atoms: _286  and  _287
REMARK  120  A    between atoms: _286  and  _289
REMARK  121  A    between atoms: _292  and  _294
REMARK  122  A    between atoms: _294  and  _295
REMARK  123  A    between atoms: _294  and  _297
REMARK  124  A    between atoms: _297  and  _298
REMARK  125  A    between atoms: _303  and  _304
REMARK                            x       y       z     vdW  Elec       q    Type
REMARK                         _______ _______ _______ _____ _____    ______ ____
ROOT
ATOM      1  O   HOH     1      49.868  70.933 -31.186  0.00  0.00    +0.000 OA
ENDROOT
TORSDOF 0
REMARK  Name = ../refined-set-2016/1v2l/1v2l_pocket.pdb
REMARK  125 active torsions:
REMARK  status: ('A' for Active; 'I' for Inactive)
REMARK    1  A    between atoms: _1  and  _5
REMARK    2  A    between atoms: _5  and  _6
REMARK    3  A    between atoms: _5  and  _8
REMARK    4  A    between atoms: _8  and  _9
REMARK    5  A    between atoms: _12  and  _14
REMARK    6  A    between atoms: _14  and  _15
REMARK    7  A    between atoms: _14  and  _17
REMARK    8  A    between atoms: _20  and  _22
REMARK    9  A    between atoms: _22  and  _23
REMARK   10  A    between atoms: _22  and  _25
REMARK   11  A    between atoms: _25  and  _26
REMARK   12  A    between atoms: _31  and  _33
REMARK   13  A    between atoms: _33  and  _34
REMARK   14  A    between atoms: _33  and  _36
REMARK   15  A    between atoms: _36  and  _37
REMARK   16  A    between atoms: _42  and  _43
REMARK   17  A    between atoms: _45  and  _47
REMARK   18  A    between atoms: _47  and  _48
REMARK   19  A    between atoms: _47  and  _50
REMARK   20  A    between atoms: _50  and  _51
REMARK   21  A    between atoms: _54  and  _56
REMARK   22  A    between atoms: _56  and  _57
REMARK   23  A    between atoms: _56  and  _59
REMARK   24  A    between atoms: _59  and  _60
REMARK   25  A    between atoms: _63  and  _65
REMARK   26  A    between atoms: _65  and  _66
REMARK   27  A    between atoms: _65  and  _68
REMARK   28  A    between atoms: _68  and  _69
REMARK   29  A    between atoms: _74  and  _76
REMARK   30  A    between atoms: _76  and  _77
REMARK   31  A    between atoms: _76  and  _79
REMARK   32  A    between atoms: _79  and  _80
REMARK   33  A    between atoms: _85  and  _86
REMARK   34  A    between atoms: _88  and  _90
REMARK   35  A    between atoms: _90  and  _91
REMARK   36  A    between atoms: _94  and  _96
REMARK   37  A    between atoms: _96  and  _97
REMARK   38  A    between atoms: _96  and  _99
REMARK   39  A    between atoms: _99  and  _100
REMARK   40  A    between atoms: _100  and  _101
REMARK   41  A    between atoms: _101  and  _102
REMARK   42  A    between atoms: _102  and  _103
REMARK   43  A    between atoms: _107  and  _109
REMARK   44  A    between atoms: _109  and  _110
REMARK   45  A    between atoms: _109  and  _112
REMARK   46  A    between atoms: _112  and  _113
REMARK   47  A    between atoms: _116  and  _118
REMARK   48  A    between atoms: _118  and  _119
REMARK   49  A    between atoms: _122  and  _124
REMARK   50  A    between atoms: _124  and  _125
REMARK   51  A    between atoms: _124  and  _127
REMARK   52  A    between atoms: _127  and  _128
REMARK   53  A    between atoms: _128  and  _240
REMARK   54  A    between atoms: _129  and  _131
REMARK   55  A    between atoms: _131  and  _132
REMARK   56  A    between atoms: _131  and  _134
REMARK   57  A    between atoms: _134  and  _135
REMARK   58  A    between atoms: _135  and  _136
REMARK   59  A    between atoms: _141  and  _143
REMARK   60  A    between atoms: _143  and  _144
REMARK   61  A    between atoms: _146  and  _148
REMARK   62  A    between atoms: _148  and  _149
REMARK   63  A    between atoms: _148  and  _151
REMARK   64  A    between atoms: _151  and  _152
REMARK   65  A    between atoms: _155  and  _157
REMARK   66  A    between atoms: _157  and  _158
REMARK   67  A    between atoms: _157  and  _160
REMARK   68  A    between atoms: _160  and  _161
REMARK   69  A    between atoms: _163  and  _165
REMARK   70  A    between atoms: _165  and  _166
REMARK   71  A    between atoms: _168  and  _170
REMARK   72  A    between atoms: _170  and  _171
REMARK   73  A    between atoms: _173  and  _175
REMARK   74  A    between atoms: _175  and  _176
REMARK   75  A    between atoms: _175  and  _178
REMARK   76  A    between atoms: _178  and  _179
REMARK   77  A    between atoms: _182  and  _184
REMARK   78  A    between atoms: _184  and  _185
REMARK   79  A    between atoms: _184  and  _187
REMARK   80  A    between atoms: _190  and  _192
REMARK   81  A    between atoms: _192  and  _193
REMARK   82  A    between atoms: _192  and  _195
REMARK   83  A    between atoms: _195  and  _196
REMARK   84  A    between atoms: _198  and  _200
REMARK   85  A    between atoms: _200  and  _201
REMARK   86  A    between atoms: _200  and  _203
REMARK   87  A    between atoms: _203  and  _204
REMARK   88  A    between atoms: _214  and  _216
REMARK   89  A    between atoms: _216  and  _217
REMARK   90  A    between atoms: _219  and  _221
REMARK   91  A    between atoms: _221  and  _222
REMARK   92  A    between atoms: _221  and  _224
REMARK   93  A    between atoms: _224  and  _225
REMARK   94  A    between atoms: _225  and  _226
REMARK   95  A    between atoms: _229  and  _231
REMARK   96  A    between atoms: _231  and  _232
REMARK   97  A    between atoms: _234  and  _236
REMARK   98  A    between atoms: _236  and  _237
REMARK   99  A    between atoms: _236  and  _239
REMARK  100  A    between atoms: _239  and  _240
REMARK  101  A    between atoms: _241  and  _243
REMARK  102  A    between atoms: _243  and  _244
REMARK  103  A    between atoms: _247  and  _249
REMARK  104  A    between atoms: _249  and  _250
REMARK  105  A    between atoms: _249  and  _252
REMARK  106  A    between atoms: _252  and  _253
REMARK  107  A    between atoms: _253  and  _254
REMARK  108  A    between atoms: _259  and  _261
REMARK  109  A    between atoms: _261  and  _262
REMARK  110  A    between atoms: _261  and  _264
REMARK  111  A    between atoms: _264  and  _265
REMARK  112  A    between atoms: _265  and  _266
REMARK  113  A    between atoms: _266  and  _267
REMARK  114  A    between atoms: _267  and  _268
REMARK  115  A    between atoms: _273  and  _274
REMARK  116  A    between atoms: _279  and  _281
REMARK  117  A    between atoms: _281  and  _282
REMARK  118  A    between atoms: _284  and  _286
REMARK  119  A    between atoms: _286  and  _287
REMARK  120  A    between atoms: _286  and  _289
REMARK  121  A    between atoms: _292  and  _294
REMARK  122  A    between atoms: _294  and  _295
REMARK  123  A    between atoms: _294  and  _297
REMARK  124  A    between atoms: _297  and  _298
REMARK  125  A    between atoms: _303  and  _304
REMARK                            x       y       z     vdW  Elec       q    Type
REMARK                         _______ _______ _______ _____ _____    ______ ____
ROOT
ATOM      1  O   HOH     1      55.166  60.799 -23.563  0.00  0.00    +0.000 OA
ENDROOT
TORSDOF 0
REMARK  Name = ../refined-set-2016/1v2l/1v2l_pocket.pdb
REMARK  125 active torsions:
REMARK  status: ('A' for Active; 'I' for Inactive)
REMARK    1  A    between atoms: _1  and  _5
REMARK    2  A    between atoms: _5  and  _6
REMARK    3  A    between atoms: _5  and  _8
REMARK    4  A    between atoms: _8  and  _9
REMARK    5  A    between atoms: _12  and  _14
REMARK    6  A    between atoms: _14  and  _15
REMARK    7  A    between atoms: _14  and  _17
REMARK    8  A    between atoms: _20  and  _22
REMARK    9  A    between atoms: _22  and  _23
REMARK   10  A    between atoms: _22  and  _25
REMARK   11  A    between atoms: _25  and  _26
REMARK   12  A    between atoms: _31  and  _33
REMARK   13  A    between atoms: _33  and  _34
REMARK   14  A    between atoms: _33  and  _36
REMARK   15  A    between atoms: _36  and  _37
REMARK   16  A    between atoms: _42  and  _43
REMARK   17  A    between atoms: _45  and  _47
REMARK   18  A    between atoms: _47  and  _48
REMARK   19  A    between atoms: _47  and  _50
REMARK   20  A    between atoms: _50  and  _51
REMARK   21  A    between atoms: _54  and  _56
REMARK   22  A    between atoms: _56  and  _57
REMARK   23  A    between atoms: _56  and  _59
REMARK   24  A    between atoms: _59  and  _60
REMARK   25  A    between atoms: _63  and  _65
REMARK   26  A    between atoms: _65  and  _66
REMARK   27  A    between atoms: _65  and  _68
REMARK   28  A    between atoms: _68  and  _69
REMARK   29  A    between atoms: _74  and  _76
REMARK   30  A    between atoms: _76  and  _77
REMARK   31  A    between atoms: _76  and  _79
REMARK   32  A    between atoms: _79  and  _80
REMARK   33  A    between atoms: _85  and  _86
REMARK   34  A    between atoms: _88  and  _90
REMARK   35  A    between atoms: _90  and  _91
REMARK   36  A    between atoms: _94  and  _96
REMARK   37  A    between atoms: _96  and  _97
REMARK   38  A    between atoms: _96  and  _99
REMARK   39  A    between atoms: _99  and  _100
REMARK   40  A    between atoms: _100  and  _101
REMARK   41  A    between atoms: _101  and  _102
REMARK   42  A    between atoms: _102  and  _103
REMARK   43  A    between atoms: _107  and  _109
REMARK   44  A    between atoms: _109  and  _110
REMARK   45  A    between atoms: _109  and  _112
REMARK   46  A    between atoms: _112  and  _113
REMARK   47  A    between atoms: _116  and  _118
REMARK   48  A    between atoms: _118  and  _119
REMARK   49  A    between atoms: _122  and  _124
REMARK   50  A    between atoms: _124  and  _125
REMARK   51  A    between atoms: _124  and  _127
REMARK   52  A    between atoms: _127  and  _128
REMARK   53  A    between atoms: _128  and  _240
REMARK   54  A    between atoms: _129  and  _131
REMARK   55  A    between atoms: _131  and  _132
REMARK   56  A    between atoms: _131  and  _134
REMARK   57  A    between atoms: _134  and  _135
REMARK   58  A    between atoms: _135  and  _136
REMARK   59  A    between atoms: _141  and  _143
REMARK   60  A    between atoms: _143  and  _144
REMARK   61  A    between atoms: _146  and  _148
REMARK   62  A    between atoms: _148  and  _149
REMARK   63  A    between atoms: _148  and  _151
REMARK   64  A    between atoms: _151  and  _152
REMARK   65  A    between atoms: _155  and  _157
REMARK   66  A    between atoms: _157  and  _158
REMARK   67  A    between atoms: _157  and  _160
REMARK   68  A    between atoms: _160  and  _161
REMARK   69  A    between atoms: _163  and  _165
REMARK   70  A    between atoms: _165  and  _166
REMARK   71  A    between atoms: _168  and  _170
REMARK   72  A    between atoms: _170  and  _171
REMARK   73  A    between atoms: _173  and  _175
REMARK   74  A    between atoms: _175  and  _176
REMARK   75  A    between atoms: _175  and  _178
REMARK   76  A    between atoms: _178  and  _179
REMARK   77  A    between atoms: _182  and  _184
REMARK   78  A    between atoms: _184  and  _185
REMARK   79  A    between atoms: _184  and  _187
REMARK   80  A    between atoms: _190  and  _192
REMARK   81  A    between atoms: _192  and  _193
REMARK   82  A    between atoms: _192  and  _195
REMARK   83  A    between atoms: _195  and  _196
REMARK   84  A    between atoms: _198  and  _200
REMARK   85  A    between atoms: _200  and  _201
REMARK   86  A    between atoms: _200  and  _203
REMARK   87  A    between atoms: _203  and  _204
REMARK   88  A    between atoms: _214  and  _216
REMARK   89  A    between atoms: _216  and  _217
REMARK   90  A    between atoms: _219  and  _221
REMARK   91  A    between atoms: _221  and  _222
REMARK   92  A    between atoms: _221  and  _224
REMARK   93  A    between atoms: _224  and  _225
REMARK   94  A    between atoms: _225  and  _226
REMARK   95  A    between atoms: _229  and  _231
REMARK   96  A    between atoms: _231  and  _232
REMARK   97  A    between atoms: _234  and  _236
REMARK   98  A    between atoms: _236  and  _237
REMARK   99  A    between atoms: _236  and  _239
REMARK  100  A    between atoms: _239  and  _240
REMARK  101  A    between atoms: _241  and  _243
REMARK  102  A    between atoms: _243  and  _244
REMARK  103  A    between atoms: _247  and  _249
REMARK  104  A    between atoms: _249  and  _250
REMARK  105  A    between atoms: _249  and  _252
REMARK  106  A    between atoms: _252  and  _253
REMARK  107  A    between atoms: _253  and  _254
REMARK  108  A    between atoms: _259  and  _261
REMARK  109  A    between atoms: _261  and  _262
REMARK  110  A    between atoms: _261  and  _264
REMARK  111  A    between atoms: _264  and  _265
REMARK  112  A    between atoms: _265  and  _266
REMARK  113  A    between atoms: _266  and  _267
REMARK  114  A    between atoms: _267  and  _268
REMARK  115  A    between atoms: _273  and  _274
REMARK  116  A    between atoms: _279  and  _281
REMARK  117  A    between atoms: _281  and  _282
REMARK  118  A    between atoms: _284  and  _286
REMARK  119  A    between atoms: _286  and  _287
REMARK  120  A    between atoms: _286  and  _289
REMARK  121  A    between atoms: _292  and  _294
REMARK  122  A    between atoms: _294  and  _295
REMARK  123  A    between atoms: _294  and  _297
REMARK  124  A    between atoms: _297  and  _298
REMARK  125  A    between atoms: _303  and  _304
REMARK                            x       y       z     vdW  Elec       q    Type
REMARK                         _______ _______ _______ _____ _____    ______ ____
ROOT
ATOM      1  O   HOH     1      50.959  67.153 -22.244  0.00  0.00    +0.000 OA
ENDROOT
TORSDOF 0
REMARK  Name = ../refined-set-2016/1v2l/1v2l_pocket.pdb
REMARK  125 active torsions:
REMARK  status: ('A' for Active; 'I' for Inactive)
REMARK    1  A    between atoms: _1  and  _5
REMARK    2  A    between atoms: _5  and  _6
REMARK    3  A    between atoms: _5  and  _8
REMARK    4  A    between atoms: _8  and  _9
REMARK    5  A    between atoms: _12  and  _14
REMARK    6  A    between atoms: _14  and  _15
REMARK    7  A    between atoms: _14  and  _17
REMARK    8  A    between atoms: _20  and  _22
REMARK    9  A    between atoms: _22  and  _23
REMARK   10  A    between atoms: _22  and  _25
REMARK   11  A    between atoms: _25  and  _26
REMARK   12  A    between atoms: _31  and  _33
REMARK   13  A    between atoms: _33  and  _34
REMARK   14  A    between atoms: _33  and  _36
REMARK   15  A    between atoms: _36  and  _37
REMARK   16  A    between atoms: _42  and  _43
REMARK   17  A    between atoms: _45  and  _47
REMARK   18  A    between atoms: _47  and  _48
REMARK   19  A    between atoms: _47  and  _50
REMARK   20  A    between atoms: _50  and  _51
REMARK   21  A    between atoms: _54  and  _56
REMARK   22  A    between atoms: _56  and  _57
REMARK   23  A    between atoms: _56  and  _59
REMARK   24  A    between atoms: _59  and  _60
REMARK   25  A    between atoms: _63  and  _65
REMARK   26  A    between atoms: _65  and  _66
REMARK   27  A    between atoms: _65  and  _68
REMARK   28  A    between atoms: _68  and  _69
REMARK   29  A    between atoms: _74  and  _76
REMARK   30  A    between atoms: _76  and  _77
REMARK   31  A    between atoms: _76  and  _79
REMARK   32  A    between atoms: _79  and  _80
REMARK   33  A    between atoms: _85  and  _86
REMARK   34  A    between atoms: _88  and  _90
REMARK   35  A    between atoms: _90  and  _91
REMARK   36  A    between atoms: _94  and  _96
REMARK   37  A    between atoms: _96  and  _97
REMARK   38  A    between atoms: _96  and  _99
REMARK   39  A    between atoms: _99  and  _100
REMARK   40  A    between atoms: _100  and  _101
REMARK   41  A    between atoms: _101  and  _102
REMARK   42  A    between atoms: _102  and  _103
REMARK   43  A    between atoms: _107  and  _109
REMARK   44  A    between atoms: _109  and  _110
REMARK   45  A    between atoms: _109  and  _112
REMARK   46  A    between atoms: _112  and  _113
REMARK   47  A    between atoms: _116  and  _118
REMARK   48  A    between atoms: _118  and  _119
REMARK   49  A    between atoms: _122  and  _124
REMARK   50  A    between atoms: _124  and  _125
REMARK   51  A    between atoms: _124  and  _127
REMARK   52  A    between atoms: _127  and  _128
REMARK   53  A    between atoms: _128  and  _240
REMARK   54  A    between atoms: _129  and  _131
REMARK   55  A    between atoms: _131  and  _132
REMARK   56  A    between atoms: _131  and  _134
REMARK   57  A    between atoms: _134  and  _135
REMARK   58  A    between atoms: _135  and  _136
REMARK   59  A    between atoms: _141  and  _143
REMARK   60  A    between atoms: _143  and  _144
REMARK   61  A    between atoms: _146  and  _148
REMARK   62  A    between atoms: _148  and  _149
REMARK   63  A    between atoms: _148  and  _151
REMARK   64  A    between atoms: _151  and  _152
REMARK   65  A    between atoms: _155  and  _157
REMARK   66  A    between atoms: _157  and  _158
REMARK   67  A    between atoms: _157  and  _160
REMARK   68  A    between atoms: _160  and  _161
REMARK   69  A    between atoms: _163  and  _165
REMARK   70  A    between atoms: _165  and  _166
REMARK   71  A    between atoms: _168  and  _170
REMARK   72  A    between atoms: _170  and  _171
REMARK   73  A    between atoms: _173  and  _175
REMARK   74  A    between atoms: _175  and  _176
REMARK   75  A    between atoms: _175  and  _178
REMARK   76  A    between atoms: _178  and  _179
REMARK   77  A    between atoms: _182  and  _184
REMARK   78  A    between atoms: _184  and  _185
REMARK   79  A    between atoms: _184  and  _187
REMARK   80  A    between atoms: _190  and  _192
REMARK   81  A    between atoms: _192  and  _193
REMARK   82  A    between atoms: _192  and  _195
REMARK   83  A    between atoms: _195  and  _196
REMARK   84  A    between atoms: _198  and  _200
REMARK   85  A    between atoms: _200  and  _201
REMARK   86  A    between atoms: _200  and  _203
REMARK   87  A    between atoms: _203  and  _204
REMARK   88  A    between atoms: _214  and  _216
REMARK   89  A    between atoms: _216  and  _217
REMARK   90  A    between atoms: _219  and  _221
REMARK   91  A    between atoms: _221  and  _222
REMARK   92  A    between atoms: _221  and  _224
REMARK   93  A    between atoms: _224  and  _225
REMARK   94  A    between atoms: _225  and  _226
REMARK   95  A    between atoms: _229  and  _231
REMARK   96  A    between atoms: _231  and  _232
REMARK   97  A    between atoms: _234  and  _236
REMARK   98  A    between atoms: _236  and  _237
REMARK   99  A    between atoms: _236  and  _239
REMARK  100  A    between atoms: _239  and  _240
REMARK  101  A    between atoms: _241  and  _243
REMARK  102  A    between atoms: _243  and  _244
REMARK  103  A    between atoms: _247  and  _249
REMARK  104  A    between atoms: _249  and  _250
REMARK  105  A    between atoms: _249  and  _252
REMARK  106  A    between atoms: _252  and  _253
REMARK  107  A    between atoms: _253  and  _254
REMARK  108  A    between atoms: _259  and  _261
REMARK  109  A    between atoms: _261  and  _262
REMARK  110  A    between atoms: _261  and  _264
REMARK  111  A    between atoms: _264  and  _265
REMARK  112  A    between atoms: _265  and  _266
REMARK  113  A    between atoms: _266  and  _267
REMARK  114  A    between atoms: _267  and  _268
REMARK  115  A    between atoms: _273  and  _274
REMARK  116  A    between atoms: _279  and  _281
REMARK  117  A    between atoms: _281  and  _282
REMARK  118  A    between atoms: _284  and  _286
REMARK  119  A    between atoms: _286  and  _287
REMARK  120  A    between atoms: _286  and  _289
REMARK  121  A    between atoms: _292  and  _294
REMARK  122  A    between atoms: _294  and  _295
REMARK  123  A    between atoms: _294  and  _297
REMARK  124  A    between atoms: _297  and  _298
REMARK  125  A    between atoms: _303  and  _304
REMARK                            x       y       z     vdW  Elec       q    Type
REMARK                         _______ _______ _______ _____ _____    ______ ____
ROOT
ATOM      1  O   HOH     1      55.872  63.117 -22.213  0.00  0.00    +0.000 OA
ENDROOT
TORSDOF 0
REMARK  Name = ../refined-set-2016/1v2l/1v2l_pocket.pdb
REMARK  125 active torsions:
REMARK  status: ('A' for Active; 'I' for Inactive)
REMARK    1  A    between atoms: _1  and  _5
REMARK    2  A    between atoms: _5  and  _6
REMARK    3  A    between atoms: _5  and  _8
REMARK    4  A    between atoms: _8  and  _9
REMARK    5  A    between atoms: _12  and  _14
REMARK    6  A    between atoms: _14  and  _15
REMARK    7  A    between atoms: _14  and  _17
REMARK    8  A    between atoms: _20  and  _22
REMARK    9  A    between atoms: _22  and  _23
REMARK   10  A    between atoms: _22  and  _25
REMARK   11  A    between atoms: _25  and  _26
REMARK   12  A    between atoms: _31  and  _33
REMARK   13  A    between atoms: _33  and  _34
REMARK   14  A    between atoms: _33  and  _36
REMARK   15  A    between atoms: _36  and  _37
REMARK   16  A    between atoms: _42  and  _43
REMARK   17  A    between atoms: _45  and  _47
REMARK   18  A    between atoms: _47  and  _48
REMARK   19  A    between atoms: _47  and  _50
REMARK   20  A    between atoms: _50  and  _51
REMARK   21  A    between atoms: _54  and  _56
REMARK   22  A    between atoms: _56  and  _57
REMARK   23  A    between atoms: _56  and  _59
REMARK   24  A    between atoms: _59  and  _60
REMARK   25  A    between atoms: _63  and  _65
REMARK   26  A    between atoms: _65  and  _66
REMARK   27  A    between atoms: _65  and  _68
REMARK   28  A    between atoms: _68  and  _69
REMARK   29  A    between atoms: _74  and  _76
REMARK   30  A    between atoms: _76  and  _77
REMARK   31  A    between atoms: _76  and  _79
REMARK   32  A    between atoms: _79  and  _80
REMARK   33  A    between atoms: _85  and  _86
REMARK   34  A    between atoms: _88  and  _90
REMARK   35  A    between atoms: _90  and  _91
REMARK   36  A    between atoms: _94  and  _96
REMARK   37  A    between atoms: _96  and  _97
REMARK   38  A    between atoms: _96  and  _99
REMARK   39  A    between atoms: _99  and  _100
REMARK   40  A    between atoms: _100  and  _101
REMARK   41  A    between atoms: _101  and  _102
REMARK   42  A    between atoms: _102  and  _103
REMARK   43  A    between atoms: _107  and  _109
REMARK   44  A    between atoms: _109  and  _110
REMARK   45  A    between atoms: _109  and  _112
REMARK   46  A    between atoms: _112  and  _113
REMARK   47  A    between atoms: _116  and  _118
REMARK   48  A    between atoms: _118  and  _119
REMARK   49  A    between atoms: _122  and  _124
REMARK   50  A    between atoms: _124  and  _125
REMARK   51  A    between atoms: _124  and  _127
REMARK   52  A    between atoms: _127  and  _128
REMARK   53  A    between atoms: _128  and  _240
REMARK   54  A    between atoms: _129  and  _131
REMARK   55  A    between atoms: _131  and  _132
REMARK   56  A    between atoms: _131  and  _134
REMARK   57  A    between atoms: _134  and  _135
REMARK   58  A    between atoms: _135  and  _136
REMARK   59  A    between atoms: _141  and  _143
REMARK   60  A    between atoms: _143  and  _144
REMARK   61  A    between atoms: _146  and  _148
REMARK   62  A    between atoms: _148  and  _149
REMARK   63  A    between atoms: _148  and  _151
REMARK   64  A    between atoms: _151  and  _152
REMARK   65  A    between atoms: _155  and  _157
REMARK   66  A    between atoms: _157  and  _158
REMARK   67  A    between atoms: _157  and  _160
REMARK   68  A    between atoms: _160  and  _161
REMARK   69  A    between atoms: _163  and  _165
REMARK   70  A    between atoms: _165  and  _166
REMARK   71  A    between atoms: _168  and  _170
REMARK   72  A    between atoms: _170  and  _171
REMARK   73  A    between atoms: _173  and  _175
REMARK   74  A    between atoms: _175  and  _176
REMARK   75  A    between atoms: _175  and  _178
REMARK   76  A    between atoms: _178  and  _179
REMARK   77  A    between atoms: _182  and  _184
REMARK   78  A    between atoms: _184  and  _185
REMARK   79  A    between atoms: _184  and  _187
REMARK   80  A    between atoms: _190  and  _192
REMARK   81  A    between atoms: _192  and  _193
REMARK   82  A    between atoms: _192  and  _195
REMARK   83  A    between atoms: _195  and  _196
REMARK   84  A    between atoms: _198  and  _200
REMARK   85  A    between atoms: _200  and  _201
REMARK   86  A    between atoms: _200  and  _203
REMARK   87  A    between atoms: _203  and  _204
REMARK   88  A    between atoms: _214  and  _216
REMARK   89  A    between atoms: _216  and  _217
REMARK   90  A    between atoms: _219  and  _221
REMARK   91  A    between atoms: _221  and  _222
REMARK   92  A    between atoms: _221  and  _224
REMARK   93  A    between atoms: _224  and  _225
REMARK   94  A    between atoms: _225  and  _226
REMARK   95  A    between atoms: _229  and  _231
REMARK   96  A    between atoms: _231  and  _232
REMARK   97  A    between atoms: _234  and  _236
REMARK   98  A    between atoms: _236  and  _237
REMARK   99  A    between atoms: _236  and  _239
REMARK  100  A    between atoms: _239  and  _240
REMARK  101  A    between atoms: _241  and  _243
REMARK  102  A    between atoms: _243  and  _244
REMARK  103  A    between atoms: _247  and  _249
REMARK  104  A    between atoms: _249  and  _250
REMARK  105  A    between atoms: _249  and  _252
REMARK  106  A    between atoms: _252  and  _253
REMARK  107  A    between atoms: _253  and  _254
REMARK  108  A    between atoms: _259  and  _261
REMARK  109  A    between atoms: _261  and  _262
REMARK  110  A    between atoms: _261  and  _264
REMARK  111  A    between atoms: _264  and  _265
REMARK  112  A    between atoms: _265  and  _266
REMARK  113  A    between atoms: _266  and  _267
REMARK  114  A    between atoms: _267  and  _268
REMARK  115  A    between atoms: _273  and  _274
REMARK  116  A    between atoms: _279  and  _281
REMARK  117  A    between atoms: _281  and  _282
REMARK  118  A    between atoms: _284  and  _286
REMARK  119  A    between atoms: _286  and  _287
REMARK  120  A    between atoms: _286  and  _289
REMARK  121  A    between atoms: _292  and  _294
REMARK  122  A    between atoms: _294  and  _295
REMARK  123  A    between atoms: _294  and  _297
REMARK  124  A    between atoms: _297  and  _298
REMARK  125  A    between atoms: _303  and  _304
REMARK                            x       y       z     vdW  Elec       q    Type
REMARK                         _______ _______ _______ _____ _____    ______ ____
ROOT
ATOM      1  O   HOH     1      59.494  70.540 -23.813  0.00  0.00    +0.000 OA
ENDROOT
TORSDOF 0
REMARK  Name = ../refined-set-2016/1v2l/1v2l_pocket.pdb
REMARK  125 active torsions:
REMARK  status: ('A' for Active; 'I' for Inactive)
REMARK    1  A    between atoms: _1  and  _5
REMARK    2  A    between atoms: _5  and  _6
REMARK    3  A    between atoms: _5  and  _8
REMARK    4  A    between atoms: _8  and  _9
REMARK    5  A    between atoms: _12  and  _14
REMARK    6  A    between atoms: _14  and  _15
REMARK    7  A    between atoms: _14  and  _17
REMARK    8  A    between atoms: _20  and  _22
REMARK    9  A    between atoms: _22  and  _23
REMARK   10  A    between atoms: _22  and  _25
REMARK   11  A    between atoms: _25  and  _26
REMARK   12  A    between atoms: _31  and  _33
REMARK   13  A    between atoms: _33  and  _34
REMARK   14  A    between atoms: _33  and  _36
REMARK   15  A    between atoms: _36  and  _37
REMARK   16  A    between atoms: _42  and  _43
REMARK   17  A    between atoms: _45  and  _47
REMARK   18  A    between atoms: _47  and  _48
REMARK   19  A    between atoms: _47  and  _50
REMARK   20  A    between atoms: _50  and  _51
REMARK   21  A    between atoms: _54  and  _56
REMARK   22  A    between atoms: _56  and  _57
REMARK   23  A    between atoms: _56  and  _59
REMARK   24  A    between atoms: _59  and  _60
REMARK   25  A    between atoms: _63  and  _65
REMARK   26  A    between atoms: _65  and  _66
REMARK   27  A    between atoms: _65  and  _68
REMARK   28  A    between atoms: _68  and  _69
REMARK   29  A    between atoms: _74  and  _76
REMARK   30  A    between atoms: _76  and  _77
REMARK   31  A    between atoms: _76  and  _79
REMARK   32  A    between atoms: _79  and  _80
REMARK   33  A    between atoms: _85  and  _86
REMARK   34  A    between atoms: _88  and  _90
REMARK   35  A    between atoms: _90  and  _91
REMARK   36  A    between atoms: _94  and  _96
REMARK   37  A    between atoms: _96  and  _97
REMARK   38  A    between atoms: _96  and  _99
REMARK   39  A    between atoms: _99  and  _100
REMARK   40  A    between atoms: _100  and  _101
REMARK   41  A    between atoms: _101  and  _102
REMARK   42  A    between atoms: _102  and  _103
REMARK   43  A    between atoms: _107  and  _109
REMARK   44  A    between atoms: _109  and  _110
REMARK   45  A    between atoms: _109  and  _112
REMARK   46  A    between atoms: _112  and  _113
REMARK   47  A    between atoms: _116  and  _118
REMARK   48  A    between atoms: _118  and  _119
REMARK   49  A    between atoms: _122  and  _124
REMARK   50  A    between atoms: _124  and  _125
REMARK   51  A    between atoms: _124  and  _127
REMARK   52  A    between atoms: _127  and  _128
REMARK   53  A    between atoms: _128  and  _240
REMARK   54  A    between atoms: _129  and  _131
REMARK   55  A    between atoms: _131  and  _132
REMARK   56  A    between atoms: _131  and  _134
REMARK   57  A    between atoms: _134  and  _135
REMARK   58  A    between atoms: _135  and  _136
REMARK   59  A    between atoms: _141  and  _143
REMARK   60  A    between atoms: _143  and  _144
REMARK   61  A    between atoms: _146  and  _148
REMARK   62  A    between atoms: _148  and  _149
REMARK   63  A    between atoms: _148  and  _151
REMARK   64  A    between atoms: _151  and  _152
REMARK   65  A    between atoms: _155  and  _157
REMARK   66  A    between atoms: _157  and  _158
REMARK   67  A    between atoms: _157  and  _160
REMARK   68  A    between atoms: _160  and  _161
REMARK   69  A    between atoms: _163  and  _165
REMARK   70  A    between atoms: _165  and  _166
REMARK   71  A    between atoms: _168  and  _170
REMARK   72  A    between atoms: _170  and  _171
REMARK   73  A    between atoms: _173  and  _175
REMARK   74  A    between atoms: _175  and  _176
REMARK   75  A    between atoms: _175  and  _178
REMARK   76  A    between atoms: _178  and  _179
REMARK   77  A    between atoms: _182  and  _184
REMARK   78  A    between atoms: _184  and  _185
REMARK   79  A    between atoms: _184  and  _187
REMARK   80  A    between atoms: _190  and  _192
REMARK   81  A    between atoms: _192  and  _193
REMARK   82  A    between atoms: _192  and  _195
REMARK   83  A    between atoms: _195  and  _196
REMARK   84  A    between atoms: _198  and  _200
REMARK   85  A    between atoms: _200  and  _201
REMARK   86  A    between atoms: _200  and  _203
REMARK   87  A    between atoms: _203  and  _204
REMARK   88  A    between atoms: _214  and  _216
REMARK   89  A    between atoms: _216  and  _217
REMARK   90  A    between atoms: _219  and  _221
REMARK   91  A    between atoms: _221  and  _222
REMARK   92  A    between atoms: _221  and  _224
REMARK   93  A    between atoms: _224  and  _225
REMARK   94  A    between atoms: _225  and  _226
REMARK   95  A    between atoms: _229  and  _231
REMARK   96  A    between atoms: _231  and  _232
REMARK   97  A    between atoms: _234  and  _236
REMARK   98  A    between atoms: _236  and  _237
REMARK   99  A    between atoms: _236  and  _239
REMARK  100  A    between atoms: _239  and  _240
REMARK  101  A    between atoms: _241  and  _243
REMARK  102  A    between atoms: _243  and  _244
REMARK  103  A    between atoms: _247  and  _249
REMARK  104  A    between atoms: _249  and  _250
REMARK  105  A    between atoms: _249  and  _252
REMARK  106  A    between atoms: _252  and  _253
REMARK  107  A    between atoms: _253  and  _254
REMARK  108  A    between atoms: _259  and  _261
REMARK  109  A    between atoms: _261  and  _262
REMARK  110  A    between atoms: _261  and  _264
REMARK  111  A    between atoms: _264  and  _265
REMARK  112  A    between atoms: _265  and  _266
REMARK  113  A    between atoms: _266  and  _267
REMARK  114  A    between atoms: _267  and  _268
REMARK  115  A    between atoms: _273  and  _274
REMARK  116  A    between atoms: _279  and  _281
REMARK  117  A    between atoms: _281  and  _282
REMARK  118  A    between atoms: _284  and  _286
REMARK  119  A    between atoms: _286  and  _287
REMARK  120  A    between atoms: _286  and  _289
REMARK  121  A    between atoms: _292  and  _294
REMARK  122  A    between atoms: _294  and  _295
REMARK  123  A    between atoms: _294  and  _297
REMARK  124  A    between atoms: _297  and  _298
REMARK  125  A    between atoms: _303  and  _304
REMARK                            x       y       z     vdW  Elec       q    Type
REMARK                         _______ _______ _______ _____ _____    ______ ____
ROOT
ATOM      1  O   HOH     1      49.652  73.748 -32.569  0.00  0.00    +0.000 OA
ENDROOT
TORSDOF 0
