REMARK  Name = ../refined-set-2016/4jsz/4jsz_pocket.pdb
REMARK  79 active torsions:
REMARK  status: ('A' for Active; 'I' for Inactive)
REMARK    1  A    between atoms: _1  and  _5
REMARK    2  A    between atoms: _5  and  _6
REMARK    3  A    between atoms: _5  and  _8
REMARK    4  A    between atoms: _8  and  _9
REMARK    5  A    between atoms: _14  and  _16
REMARK    6  A    between atoms: _16  and  _17
REMARK    7  A    between atoms: _16  and  _19
REMARK    8  A    between atoms: _19  and  _20
REMARK    9  A    between atoms: _30  and  _32
REMARK   10  A    between atoms: _32  and  _33
REMARK   11  A    between atoms: _35  and  _37
REMARK   12  A    between atoms: _37  and  _38
REMARK   13  A    between atoms: _37  and  _40
REMARK   14  A    between atoms: _40  and  _41
REMARK   15  A    between atoms: _46  and  _47
REMARK   16  A    between atoms: _49  and  _51
REMARK   17  A    between atoms: _51  and  _52
REMARK   18  A    between atoms: _54  and  _56
REMARK   19  A    between atoms: _56  and  _57
REMARK   20  A    between atoms: _56  and  _59
REMARK   21  A    between atoms: _59  and  _60
REMARK   22  A    between atoms: _60  and  _61
REMARK   23  A    between atoms: _61  and  _62
REMARK   24  A    between atoms: _62  and  _63
REMARK   25  A    between atoms: _67  and  _69
REMARK   26  A    between atoms: _69  and  _70
REMARK   27  A    between atoms: _69  and  _72
REMARK   28  A    between atoms: _72  and  _73
REMARK   29  A    between atoms: _78  and  _80
REMARK   30  A    between atoms: _80  and  _81
REMARK   31  A    between atoms: _80  and  _83
REMARK   32  A    between atoms: _83  and  _84
REMARK   33  A    between atoms: _89  and  _91
REMARK   34  A    between atoms: _91  and  _92
REMARK   35  A    between atoms: _95  and  _96
REMARK   36  A    between atoms: _101  and  _103
REMARK   37  A    between atoms: _103  and  _104
REMARK   38  A    between atoms: _103  and  _106
REMARK   39  A    between atoms: _106  and  _107
REMARK   40  A    between atoms: _107  and  _108
REMARK   41  A    between atoms: _111  and  _113
REMARK   42  A    between atoms: _113  and  _114
REMARK   43  A    between atoms: _113  and  _116
REMARK   44  A    between atoms: _116  and  _117
REMARK   45  A    between atoms: _122  and  _124
REMARK   46  A    between atoms: _124  and  _125
REMARK   47  A    between atoms: _124  and  _127
REMARK   48  A    between atoms: _127  and  _128
REMARK   49  A    between atoms: _138  and  _140
REMARK   50  A    between atoms: _140  and  _141
REMARK   51  A    between atoms: _140  and  _143
REMARK   52  A    between atoms: _143  and  _144
REMARK   53  A    between atoms: _149  and  _151
REMARK   54  A    between atoms: _151  and  _152
REMARK   55  A    between atoms: _151  and  _154
REMARK   56  A    between atoms: _154  and  _155
REMARK   57  A    between atoms: _155  and  _156
REMARK   58  A    between atoms: _156  and  _157
REMARK   59  A    between atoms: _157  and  _158
REMARK   60  A    between atoms: _162  and  _164
REMARK   61  A    between atoms: _164  and  _165
REMARK   62  A    between atoms: _164  and  _167
REMARK   63  A    between atoms: _167  and  _168
REMARK   64  A    between atoms: _171  and  _173
REMARK   65  A    between atoms: _173  and  _174
REMARK   66  A    between atoms: _173  and  _176
REMARK   67  A    between atoms: _176  and  _177
REMARK   68  A    between atoms: _184  and  _185
REMARK   69  A    between atoms: _190  and  _192
REMARK   70  A    between atoms: _192  and  _193
REMARK   71  A    between atoms: _196  and  _198
REMARK   72  A    between atoms: _198  and  _199
REMARK   73  A    between atoms: _198  and  _201
REMARK   74  A    between atoms: _201  and  _202
REMARK   75  A    between atoms: _208  and  _209
REMARK   76  A    between atoms: _214  and  _216
REMARK   77  A    between atoms: _216  and  _217
REMARK   78  A    between atoms: _216  and  _219
REMARK   79  A    between atoms: _219  and  _220
REMARK                            x       y       z     vdW  Elec       q    Type
REMARK                         _______ _______ _______ _____ _____    ______ ____
ROOT
ATOM      1  C   GLY A   9      28.175  -6.620  15.540  0.00  0.00    +0.246 C 
ATOM      2  N   PRO A  10      27.114  -6.917  16.325  0.00  0.00    -0.272 N 
ATOM      3  CA  PRO A  10      26.870  -6.273  17.636  0.00  0.00    +0.152 C 
ATOM      4  CB  PRO A  10      25.646  -7.053  18.175  0.00  0.00    +0.031 C 
ATOM      5  CG  PRO A  10      24.892  -7.426  16.909  0.00  0.00    +0.024 C 
ATOM      6  CD  PRO A  10      26.000  -7.805  15.921  0.00  0.00    +0.094 C 
ATOM      7  O   GLY A   9      29.070  -5.844  15.897  0.00  0.00    -0.273 OA
ENDROOT
BRANCH   3   8
ATOM      8  C   PRO A  10      28.018  -6.322  18.640  0.00  0.00    +0.241 C 
ATOM      9  O   PRO A  10      28.160  -5.391  19.424  0.00  0.00    -0.273 OA
ATOM     10  N   GLU A  11      28.878  -7.342  18.594  0.00  0.00    -0.297 N 
ATOM     11  H   GLU A  11      28.725  -8.123  17.924  0.00  0.00    +0.150 HD
BRANCH  10  12
ATOM     12  CA  GLU A  11      30.040  -7.359  19.491  0.00  0.00    +0.149 C 
BRANCH  12  13
ATOM     13  C   GLU A  11      31.168  -6.372  19.131  0.00  0.00    +0.241 C 
ATOM     14  O   GLU A  11      32.103  -6.176  19.936  0.00  0.00    -0.273 OA
ATOM     15  N   HIS A  12      31.132  -5.847  17.910  0.00  0.00    -0.297 N 
ATOM     16  H   HIS A  12      30.409  -6.200  17.251  0.00  0.00    +0.150 HD
BRANCH  15  17
ATOM     17  CA  HIS A  12      32.055  -4.790  17.424  0.00  0.00    +0.155 C 
BRANCH  17  18
ATOM     18  C   HIS A  12      31.561  -3.366  17.649  0.00  0.00    +0.241 C 
ATOM     19  N   TRP A  13      30.232  -3.180  17.764  0.00  0.00    -0.297 N 
ATOM     20  H   TRP A  13      29.599  -3.999  17.864  0.00  0.00    +0.150 HD
ATOM     21  O   HIS A  12      32.373  -2.406  17.649  0.00  0.00    -0.273 OA
BRANCH  19  22
ATOM     22  CA  TRP A  13      29.680  -1.828  17.748  0.00  0.00    +0.153 C 
BRANCH  22  23
ATOM     23  C   TRP A  13      30.300  -0.868  18.757  0.00  0.00    +0.241 C 
ATOM     24  N   HIS A  14      30.621  -1.382  19.938  0.00  0.00    -0.297 N 
ATOM     25  H   HIS A  14      30.532  -2.406  20.094  0.00  0.00    +0.150 HD
ATOM     26  O   TRP A  13      30.435   0.316  18.475  0.00  0.00    -0.273 OA
BRANCH  24  27
ATOM     27  CA  HIS A  14      31.089  -0.540  21.001  0.00  0.00    +0.155 C 
BRANCH  27  28
ATOM     28  C   HIS A  14      32.357   0.271  20.623  0.00  0.00    +0.241 C 
ATOM     29  O   HIS A  14      32.561   1.326  21.213  0.00  0.00    -0.273 OA
ATOM     30  N   LYS A  15      33.148  -0.198  19.641  0.00  0.00    -0.297 N 
ATOM     31  H   LYS A  15      32.871  -1.052  19.116  0.00  0.00    +0.150 HD
BRANCH  30  32
ATOM     32  CA  LYS A  15      34.402   0.492  19.308  0.00  0.00    +0.149 C 
BRANCH  32  33
ATOM     33  C   LYS A  15      34.157   1.824  18.622  0.00  0.00    +0.241 C 
ATOM     34  O   LYS A  15      34.881   2.793  18.852  0.00  0.00    -0.273 OA
ATOM     35  N   ASP A  16      33.101   1.889  17.812  0.00  0.00    -0.297 N 
ATOM     36  H   ASP A  16      32.582   1.021  17.570  0.00  0.00    +0.150 HD
BRANCH  35  37
ATOM     37  CA  ASP A  16      32.659   3.189  17.252  0.00  0.00    +0.160 C 
BRANCH  37  38
ATOM     38  C   ASP A  16      31.545   3.880  17.989  0.00  0.00    +0.241 C 
ATOM     39  N   PHE A  17      30.761   3.119  18.772  0.00  0.00    -0.297 N 
ATOM     40  H   PHE A  17      30.971   2.102  18.833  0.00  0.00    +0.150 HD
ATOM     41  O   ASP A  16      31.412   5.068  17.851  0.00  0.00    -0.273 OA
BRANCH  39  42
ATOM     42  CA  PHE A  17      29.614   3.641  19.555  0.00  0.00    +0.153 C 
BRANCH  42  43
ATOM     43  C   PHE A  17      29.704   3.144  20.982  0.00  0.00    +0.244 C 
ATOM     44  N   PRO A  18      30.555   3.808  21.802  0.00  0.00    -0.273 N 
ATOM     45  CA  PRO A  18      30.872   3.332  23.147  0.00  0.00    +0.140 C 
ATOM     46  CB  PRO A  18      31.855   4.409  23.714  0.00  0.00    +0.030 C 
ATOM     47  CG  PRO A  18      31.812   5.561  22.684  0.00  0.00    +0.024 C 
ATOM     48  CD  PRO A  18      31.408   4.938  21.388  0.00  0.00    +0.094 C 
ATOM     49  O   PHE A  17      29.066   2.163  21.329  0.00  0.00    -0.273 OA
BRANCH  45  50
ATOM     50  C   PRO A  18      29.655   3.212  24.031  0.00  0.00    +0.227 C 
ATOM     51  O   PRO A  18      29.675   2.406  24.926  0.00  0.00    -0.286 OA
ENDBRANCH  45  50
ENDBRANCH  42  43
BRANCH  42  52
ATOM     52  CB  PHE A  17      28.282   3.238  18.893  0.00  0.00    +0.055 C 
BRANCH  52  53
ATOM     53  CG  PHE A  17      28.251   3.599  17.440  0.00  0.00    -0.020 A 
ATOM     54  CD2 PHE A  17      27.870   4.896  17.038  0.00  0.00    -0.004 A 
ATOM     55  CE2 PHE A  17      27.842   5.213  15.666  0.00  0.00    -0.000 A 
ATOM     56  CZ  PHE A  17      28.238   4.251  14.720  0.00  0.00    -0.000 A 
ATOM     57  CE1 PHE A  17      28.653   2.990  15.105  0.00  0.00    -0.000 A 
ATOM     58  CD1 PHE A  17      28.656   2.665  16.470  0.00  0.00    -0.004 A 
ENDBRANCH  52  53
ENDBRANCH  42  52
ENDBRANCH  39  42
ENDBRANCH  37  38
BRANCH  37  59
ATOM     59  CB  ASP A  16      32.387   3.065  15.756  0.00  0.00    +0.143 C 
BRANCH  59  60
ATOM     60  CG  ASP A  16      33.694   2.861  15.015  0.00  0.00    +0.367 C 
ATOM     61  OD2 ASP A  16      34.194   1.703  14.888  0.00  0.00    -0.246 OA
ATOM     62  OD1 ASP A  16      34.310   3.880  14.770  0.00  0.00    -0.246 OA
ENDBRANCH  59  60
ENDBRANCH  37  59
ENDBRANCH  35  37
ENDBRANCH  32  33
BRANCH  32  63
ATOM     63  CB  LYS A  15      35.330  -0.390  18.481  0.00  0.00    +0.029 C 
BRANCH  63  64
ATOM     64  CG  LYS A  15      35.832  -1.627  19.294  0.00  0.00    +0.000 C 
BRANCH  64  65
ATOM     65  CD  LYS A  15      36.648  -2.574  18.441  0.00  0.00    -0.024 C 
BRANCH  65  66
ATOM     66  CE  LYS A  15      35.729  -3.433  17.624  0.00  0.00    -0.086 C 
BRANCH  66  67
ATOM     67  NZ  LYS A  15      36.491  -4.346  16.637  0.00  0.00    +0.380 N 
ATOM     68  HZ1 LYS A  15      37.128  -4.974  17.168  0.00  0.00    -0.089 HD
ATOM     69  HZ2 LYS A  15      35.809  -4.917  16.098  0.00  0.00    -0.089 HD
ATOM     70  HZ3 LYS A  15      37.047  -3.759  15.983  0.00  0.00    -0.089 HD
ENDBRANCH  66  67
ENDBRANCH  65  66
ENDBRANCH  64  65
ENDBRANCH  63  64
ENDBRANCH  32  63
ENDBRANCH  30  32
ENDBRANCH  27  28
BRANCH  27  71
ATOM     71  CB  HIS A  14      31.301  -1.362  22.285  0.00  0.00    +0.076 C 
BRANCH  71  72
ATOM     72  CG  HIS A  14      32.548  -2.178  22.256  0.00  0.00    +0.082 A 
ATOM     73  ND1 HIS A  14      33.722  -1.708  22.808  0.00  0.00    -0.227 NA
ATOM     74  CE1 HIS A  14      34.685  -2.593  22.628  0.00  0.00    +0.199 A 
ATOM     75  NE2 HIS A  14      34.196  -3.596  21.933  0.00  0.00    -0.221 NA
ATOM     76  CD2 HIS A  14      32.846  -3.372  21.695  0.00  0.00    +0.115 A 
ENDBRANCH  71  72
ENDBRANCH  27  71
ENDBRANCH  24  27
ENDBRANCH  22  23
BRANCH  22  77
ATOM     77  CB  TRP A  13      28.138  -1.807  17.942  0.00  0.00    +0.057 C 
BRANCH  77  78
ATOM     78  CG  TRP A  13      27.439  -2.552  16.816  0.00  0.00    -0.002 A 
ATOM     79  CD2 TRP A  13      26.053  -2.883  16.748  0.00  0.00    +0.013 A 
ATOM     80  CE3 TRP A  13      24.968  -2.675  17.618  0.00  0.00    +0.001 A 
ATOM     81  CZ3 TRP A  13      23.722  -3.145  17.266  0.00  0.00    +0.000 A 
ATOM     82  CH2 TRP A  13      23.526  -3.829  16.034  0.00  0.00    +0.001 A 
ATOM     83  CZ2 TRP A  13      24.593  -4.039  15.136  0.00  0.00    +0.017 A 
ATOM     84  CE2 TRP A  13      25.834  -3.534  15.496  0.00  0.00    +0.056 A 
ATOM     85  NE1 TRP A  13      27.062  -3.680  14.876  0.00  0.00    -0.352 N 
ATOM     86  HE1 TRP A  13      27.244  -4.193  13.990  0.00  0.00    +0.166 HD
ATOM     87  CD1 TRP A  13      28.008  -3.018  15.649  0.00  0.00    +0.068 A 
ENDBRANCH  77  78
ENDBRANCH  22  77
ENDBRANCH  19  22
ENDBRANCH  17  18
BRANCH  17  88
ATOM     88  CB  HIS A  12      32.319  -4.991  15.926  0.00  0.00    +0.076 C 
BRANCH  88  89
ATOM     89  CG  HIS A  12      33.142  -6.232  15.639  0.00  0.00    +0.082 A 
ATOM     90  ND1 HIS A  12      34.522  -6.264  15.764  0.00  0.00    -0.227 NA
ATOM     91  CE1 HIS A  12      34.963  -7.475  15.451  0.00  0.00    +0.199 A 
ATOM     92  NE2 HIS A  12      33.928  -8.255  15.202  0.00  0.00    -0.221 NA
ATOM     93  CD2 HIS A  12      32.770  -7.493  15.277  0.00  0.00    +0.115 A 
ENDBRANCH  88  89
ENDBRANCH  17  88
ENDBRANCH  15  17
ENDBRANCH  12  13
BRANCH  12  94
ATOM     94  CB  GLU A  11      30.607  -8.774  19.581  0.00  0.00    +0.041 C 
BRANCH  94  95
ATOM     95  CG  GLU A  11      29.516  -9.880  19.970  0.00  0.00    +0.116 C 
BRANCH  95  96
ATOM     96  CD  GLU A  11      28.545  -9.538  21.143  0.00  0.00    +0.365 C 
ATOM     97  OE2 GLU A  11      29.052  -9.374  22.265  0.00  0.00    -0.246 OA
ATOM     98  OE1 GLU A  11      27.255  -9.493  20.946  0.00  0.00    -0.246 OA
ENDBRANCH  95  96
ENDBRANCH  94  95
ENDBRANCH  12  94
ENDBRANCH  10  12
ENDBRANCH   3   8
BRANCH   1  99
ATOM     99  CA  GLY A   9      28.207  -7.262  14.159  0.00  0.00    +0.176 C 
BRANCH  99 101
ATOM    100  C   ASN A   8      29.715  -5.817  12.826  0.00  0.00    +0.241 C 
ATOM    101  N   GLY A   9      29.460  -6.960  13.483  0.00  0.00    -0.295 N 
ATOM    102  H   GLY A   9      30.210  -7.680  13.511  0.00  0.00    +0.150 HD
ATOM    103  O   ASN A   8      28.982  -4.841  12.818  0.00  0.00    -0.273 OA
BRANCH 100 104
ATOM    104  CA  ASN A   8      31.074  -5.788  12.049  0.00  0.00    +0.158 C 
BRANCH 104 107
ATOM    105  C   HIS A   7      32.879  -7.399  11.805  0.00  0.00    +0.241 C 
ATOM    106  O   HIS A   7      33.694  -6.553  12.106  0.00  0.00    -0.273 OA
ATOM    107  N   ASN A   8      31.558  -7.149  11.778  0.00  0.00    -0.297 N 
ATOM    108  H   ASN A   8      30.884  -7.913  11.567  0.00  0.00    +0.150 HD
BRANCH 105 109
ATOM    109  CA  HIS A   7      33.370  -8.790  11.515  0.00  0.00    +0.155 C 
BRANCH 109 112
ATOM    110  C   LYS A   6      32.093 -10.580  12.418  0.00  0.00    +0.241 C 
ATOM    111  O   LYS A   6      32.604 -10.414  13.549  0.00  0.00    -0.273 OA
ATOM    112  N   HIS A   7      32.330  -9.769  11.397  0.00  0.00    -0.297 N 
ATOM    113  H   HIS A   7      31.770  -9.842  10.524  0.00  0.00    +0.150 HD
BRANCH 110 114
ATOM    114  CA  LYS A   6      31.102 -11.730  12.150  0.00  0.00    +0.149 C 
BRANCH 114 117
ATOM    115  C   GLY A   5      29.232 -10.336  11.336  0.00  0.00    +0.243 C 
ATOM    116  O   GLY A   5      29.314  -9.577  12.321  0.00  0.00    -0.273 OA
ATOM    117  N   LYS A   6      30.059 -11.368  11.150  0.00  0.00    -0.297 N 
ATOM    118  H   LYS A   6      29.972 -11.935  10.282  0.00  0.00    +0.150 HD
BRANCH 115 119
ATOM    119  CA  GLY A   5      28.223 -10.078  10.223  0.00  0.00    +0.176 C 
BRANCH 119 122
ATOM    120  C   TYR A   4      26.361  -9.036  11.341  0.00  0.00    +0.241 C 
ATOM    121  O   TYR A   4      26.117 -10.091  11.947  0.00  0.00    -0.273 OA
ATOM    122  N   GLY A   5      27.353  -8.912  10.475  0.00  0.00    -0.295 N 
ATOM    123  H   GLY A   5      27.517  -8.011   9.982  0.00  0.00    +0.150 HD
BRANCH 120 124
ATOM    124  CA  TYR A   4      25.440  -7.834  11.557  0.00  0.00    +0.153 C 
BRANCH 124 127
ATOM    125  C   GLY A   3      26.085  -5.530  11.292  0.00  0.00    +0.243 C 
ATOM    126  O   GLY A   3      26.074  -5.326  12.520  0.00  0.00    -0.273 OA
ATOM    127  N   TYR A   4      25.784  -6.691  10.729  0.00  0.00    -0.297 N 
ATOM    128  H   TYR A   4      25.794  -6.784   9.693  0.00  0.00    +0.150 HD
BRANCH 125 129
ATOM    129  CA  GLY A   3      26.417  -4.419  10.339  0.00  0.00    +0.176 C 
BRANCH 129 131
ATOM    130  C   TRP A   2      27.606  -2.360  10.538  0.00  0.00    +0.241 C 
ATOM    131  N   GLY A   3      27.417  -3.583  10.976  0.00  0.00    -0.295 N 
ATOM    132  H   GLY A   3      27.978  -3.949  11.771  0.00  0.00    +0.150 HD
ATOM    133  O   TRP A   2      27.014  -1.904   9.520  0.00  0.00    -0.273 OA
BRANCH 130 134
ATOM    134  CA  TRP A   2      28.589  -1.543  11.321  0.00  0.00    +0.153 C 
BRANCH 134 136
ATOM    135  C   HIS A   1      30.123  -0.893   9.543  0.00  0.00    +0.203 C 
ATOM    136  N   TRP A   2      29.214  -0.550  10.442  0.00  0.00    -0.300 N 
ATOM    137  H   TRP A   2      28.936   0.449  10.527  0.00  0.00    +0.150 HD
ATOM    138  O   HIS A   1      30.371  -2.065   9.266  0.00  0.00    -0.277 OA
BRANCH 135 139
ATOM    139  CA  HIS A   1      30.974   0.286   9.020  0.00  0.00    +0.019 C 
BRANCH 139 140
ATOM    140  N   HIS A   1      32.020  -0.280   8.102  0.00  0.00    +0.388 N 
ATOM    141  H1  HIS A   1      32.615  -0.951   8.628  0.00  0.00    -0.089 HD
ATOM    142  H2  HIS A   1      32.610   0.493   7.733  0.00  0.00    -0.089 HD
ATOM    143  H3  HIS A   1      31.556  -0.772   7.311  0.00  0.00    -0.089 HD
ENDBRANCH 139 140
BRANCH 139 144
ATOM    144  CB  HIS A   1      30.132   1.438   8.378  0.00  0.00    +0.035 C 
BRANCH 144 145
ATOM    145  CG  HIS A   1      30.459   2.847   8.867  0.00  0.00    +0.078 A 
ATOM    146  CD2 HIS A   1      29.828   3.649   9.764  0.00  0.00    +0.115 A 
ATOM    147  NE2 HIS A   1      30.515   4.844   9.812  0.00  0.00    -0.221 NA
ATOM    148  CE1 HIS A   1      31.518   4.793   8.951  0.00  0.00    +0.199 A 
ATOM    149  ND1 HIS A   1      31.497   3.611   8.355  0.00  0.00    -0.227 NA
ENDBRANCH 144 145
ENDBRANCH 139 144
ENDBRANCH 135 139
ENDBRANCH 134 136
BRANCH 134 150
ATOM    150  CB  TRP A   2      27.932  -0.847  12.517  0.00  0.00    +0.057 C 
BRANCH 150 151
ATOM    151  CG  TRP A   2      26.765   0.008  12.126  0.00  0.00    -0.002 A 
ATOM    152  CD2 TRP A   2      25.409  -0.439  12.049  0.00  0.00    +0.013 A 
ATOM    153  CE3 TRP A   2      24.788  -1.675  12.312  0.00  0.00    +0.001 A 
ATOM    154  CZ3 TRP A   2      23.365  -1.767  12.138  0.00  0.00    +0.000 A 
ATOM    155  CH2 TRP A   2      22.602  -0.624  11.723  0.00  0.00    +0.001 A 
ATOM    156  CZ2 TRP A   2      23.205   0.606  11.531  0.00  0.00    +0.017 A 
ATOM    157  CE2 TRP A   2      24.608   0.685  11.689  0.00  0.00    +0.056 A 
ATOM    158  NE1 TRP A   2      25.458   1.744  11.505  0.00  0.00    -0.352 N 
ATOM    159  HE1 TRP A   2      25.179   2.699  11.202  0.00  0.00    +0.166 HD
ATOM    160  CD1 TRP A   2      26.764   1.330  11.792  0.00  0.00    +0.068 A 
ENDBRANCH 150 151
ENDBRANCH 134 150
ENDBRANCH 130 134
ENDBRANCH 129 131
ENDBRANCH 125 129
ENDBRANCH 124 127
BRANCH 124 161
ATOM    161  CB  TYR A   4      23.976  -8.270  11.339  0.00  0.00    +0.055 C 
BRANCH 161 162
ATOM    162  CG  TYR A   4      23.032  -7.201  11.852  0.00  0.00    -0.020 A 
ATOM    163  CD2 TYR A   4      22.646  -7.191  13.192  0.00  0.00    -0.001 A 
ATOM    164  CE2 TYR A   4      21.757  -6.183  13.678  0.00  0.00    +0.036 A 
ATOM    165  CZ  TYR A   4      21.297  -5.194  12.782  0.00  0.00    +0.134 A 
ATOM    166  CE1 TYR A   4      21.691  -5.206  11.430  0.00  0.00    +0.036 A 
ATOM    167  CD1 TYR A   4      22.578  -6.213  11.001  0.00  0.00    -0.001 A 
BRANCH 165 168
ATOM    168  OH  TYR A   4      20.426  -4.211  13.221  0.00  0.00    -0.506 OA
ATOM    169  HH  TYR A   4      20.247  -4.337  14.186  0.00  0.00    +0.292 HD
ENDBRANCH 165 168
ENDBRANCH 161 162
ENDBRANCH 124 161
ENDBRANCH 120 124
ENDBRANCH 119 122
ENDBRANCH 115 119
ENDBRANCH 114 117
BRANCH 114 170
ATOM    170  CB  LYS A   6      31.890 -12.981  11.695  0.00  0.00    +0.029 C 
BRANCH 170 171
ATOM    171  CG  LYS A   6      32.967 -13.455  12.695  0.00  0.00    +0.000 C 
BRANCH 171 172
ATOM    172  CD  LYS A   6      33.537 -14.862  12.306  0.00  0.00    -0.024 C 
BRANCH 172 173
ATOM    173  CE  LYS A   6      32.409 -15.875  11.966  0.00  0.00    -0.086 C 
BRANCH 173 174
ATOM    174  NZ  LYS A   6      32.922 -17.057  11.180  0.00  0.00    +0.380 N 
ATOM    175  HZ1 LYS A   6      33.646 -17.554  11.737  0.00  0.00    -0.089 HD
ATOM    176  HZ2 LYS A   6      32.134 -17.705  10.977  0.00  0.00    -0.089 HD
ATOM    177  HZ3 LYS A   6      33.338 -16.724  10.287  0.00  0.00    -0.089 HD
ENDBRANCH 173 174
ENDBRANCH 172 173
ENDBRANCH 171 172
ENDBRANCH 170 171
ENDBRANCH 114 170
ENDBRANCH 110 114
ENDBRANCH 109 112
BRANCH 109 178
ATOM    178  CB  HIS A   7      34.242  -8.848  10.250  0.00  0.00    +0.076 C 
BRANCH 178 179
ATOM    179  CG  HIS A   7      34.912 -10.182  10.081  0.00  0.00    +0.082 A 
ATOM    180  ND1 HIS A   7      35.922 -10.608  10.920  0.00  0.00    -0.227 NA
ATOM    181  CE1 HIS A   7      36.304 -11.825  10.556  0.00  0.00    +0.199 A 
ATOM    182  NE2 HIS A   7      35.580 -12.197   9.507  0.00  0.00    -0.221 NA
ATOM    183  CD2 HIS A   7      34.704 -11.186   9.189  0.00  0.00    +0.115 A 
ENDBRANCH 178 179
ENDBRANCH 109 178
ENDBRANCH 105 109
ENDBRANCH 104 107
BRANCH 104 184
ATOM    184  CB  ASN A   8      30.922  -5.025  10.702  0.00  0.00    +0.114 C 
BRANCH 184 185
ATOM    185  CG  ASN A   8      29.801  -5.606   9.819  0.00  0.00    +0.222 C 
ATOM    186  OD1 ASN A   8      29.245  -6.700  10.091  0.00  0.00    -0.275 OA
ATOM    187  ND2 ASN A   8      29.423  -4.856   8.782  0.00  0.00    -0.329 N 
ATOM    188 HD21 ASN A   8      29.907  -3.956   8.587  0.00  0.00    +0.145 HD
ATOM    189 HD22 ASN A   8      28.645  -5.171   8.168  0.00  0.00    +0.145 HD
ENDBRANCH 184 185
ENDBRANCH 104 184
ENDBRANCH 100 104
ENDBRANCH  99 101
ENDBRANCH   1  99
TORSDOF 68
REMARK  Name = ../refined-set-2016/4jsz/4jsz_pocket.pdb
REMARK  79 active torsions:
REMARK  status: ('A' for Active; 'I' for Inactive)
REMARK    1  A    between atoms: _1  and  _5
REMARK    2  A    between atoms: _5  and  _6
REMARK    3  A    between atoms: _5  and  _8
REMARK    4  A    between atoms: _8  and  _9
REMARK    5  A    between atoms: _14  and  _16
REMARK    6  A    between atoms: _16  and  _17
REMARK    7  A    between atoms: _16  and  _19
REMARK    8  A    between atoms: _19  and  _20
REMARK    9  A    between atoms: _30  and  _32
REMARK   10  A    between atoms: _32  and  _33
REMARK   11  A    between atoms: _35  and  _37
REMARK   12  A    between atoms: _37  and  _38
REMARK   13  A    between atoms: _37  and  _40
REMARK   14  A    between atoms: _40  and  _41
REMARK   15  A    between atoms: _46  and  _47
REMARK   16  A    between atoms: _49  and  _51
REMARK   17  A    between atoms: _51  and  _52
REMARK   18  A    between atoms: _54  and  _56
REMARK   19  A    between atoms: _56  and  _57
REMARK   20  A    between atoms: _56  and  _59
REMARK   21  A    between atoms: _59  and  _60
REMARK   22  A    between atoms: _60  and  _61
REMARK   23  A    between atoms: _61  and  _62
REMARK   24  A    between atoms: _62  and  _63
REMARK   25  A    between atoms: _67  and  _69
REMARK   26  A    between atoms: _69  and  _70
REMARK   27  A    between atoms: _69  and  _72
REMARK   28  A    between atoms: _72  and  _73
REMARK   29  A    between atoms: _78  and  _80
REMARK   30  A    between atoms: _80  and  _81
REMARK   31  A    between atoms: _80  and  _83
REMARK   32  A    between atoms: _83  and  _84
REMARK   33  A    between atoms: _89  and  _91
REMARK   34  A    between atoms: _91  and  _92
REMARK   35  A    between atoms: _95  and  _96
REMARK   36  A    between atoms: _101  and  _103
REMARK   37  A    between atoms: _103  and  _104
REMARK   38  A    between atoms: _103  and  _106
REMARK   39  A    between atoms: _106  and  _107
REMARK   40  A    between atoms: _107  and  _108
REMARK   41  A    between atoms: _111  and  _113
REMARK   42  A    between atoms: _113  and  _114
REMARK   43  A    between atoms: _113  and  _116
REMARK   44  A    between atoms: _116  and  _117
REMARK   45  A    between atoms: _122  and  _124
REMARK   46  A    between atoms: _124  and  _125
REMARK   47  A    between atoms: _124  and  _127
REMARK   48  A    between atoms: _127  and  _128
REMARK   49  A    between atoms: _138  and  _140
REMARK   50  A    between atoms: _140  and  _141
REMARK   51  A    between atoms: _140  and  _143
REMARK   52  A    between atoms: _143  and  _144
REMARK   53  A    between atoms: _149  and  _151
REMARK   54  A    between atoms: _151  and  _152
REMARK   55  A    between atoms: _151  and  _154
REMARK   56  A    between atoms: _154  and  _155
REMARK   57  A    between atoms: _155  and  _156
REMARK   58  A    between atoms: _156  and  _157
REMARK   59  A    between atoms: _157  and  _158
REMARK   60  A    between atoms: _162  and  _164
REMARK   61  A    between atoms: _164  and  _165
REMARK   62  A    between atoms: _164  and  _167
REMARK   63  A    between atoms: _167  and  _168
REMARK   64  A    between atoms: _171  and  _173
REMARK   65  A    between atoms: _173  and  _174
REMARK   66  A    between atoms: _173  and  _176
REMARK   67  A    between atoms: _176  and  _177
REMARK   68  A    between atoms: _184  and  _185
REMARK   69  A    between atoms: _190  and  _192
REMARK   70  A    between atoms: _192  and  _193
REMARK   71  A    between atoms: _196  and  _198
REMARK   72  A    between atoms: _198  and  _199
REMARK   73  A    between atoms: _198  and  _201
REMARK   74  A    between atoms: _201  and  _202
REMARK   75  A    between atoms: _208  and  _209
REMARK   76  A    between atoms: _214  and  _216
REMARK   77  A    between atoms: _216  and  _217
REMARK   78  A    between atoms: _216  and  _219
REMARK   79  A    between atoms: _219  and  _220
REMARK                            x       y       z     vdW  Elec       q    Type
REMARK                         _______ _______ _______ _____ _____    ______ ____
ROOT
ATOM      1  CA  ALA A   1      26.892   0.188  23.375  0.00  0.00    +0.133 C 
ATOM      2  CB  ALA A   1      27.654  -0.578  22.283  0.00  0.00    +0.027 C 
ENDROOT
BRANCH   1   3
ATOM      3  N   ALA A   1      27.330   1.606  23.487  0.00  0.00    -0.239 NA
ATOM      4  H   ALA A   1      28.097   1.960  22.880  0.00  0.00    +0.142 HD
ENDBRANCH   1   3
BRANCH   1   5
ATOM      5  C   ALA A   1      26.977  -0.570  24.698  0.00  0.00    +0.224 C 
ATOM      6  O   ALA A   1      26.240  -1.578  24.907  0.00  0.00    -0.287 OA
ENDBRANCH   1   5
TORSDOF 2
REMARK  Name = ../refined-set-2016/4jsz/4jsz_pocket.pdb
REMARK  79 active torsions:
REMARK  status: ('A' for Active; 'I' for Inactive)
REMARK    1  A    between atoms: _1  and  _5
REMARK    2  A    between atoms: _5  and  _6
REMARK    3  A    between atoms: _5  and  _8
REMARK    4  A    between atoms: _8  and  _9
REMARK    5  A    between atoms: _14  and  _16
REMARK    6  A    between atoms: _16  and  _17
REMARK    7  A    between atoms: _16  and  _19
REMARK    8  A    between atoms: _19  and  _20
REMARK    9  A    between atoms: _30  and  _32
REMARK   10  A    between atoms: _32  and  _33
REMARK   11  A    between atoms: _35  and  _37
REMARK   12  A    between atoms: _37  and  _38
REMARK   13  A    between atoms: _37  and  _40
REMARK   14  A    between atoms: _40  and  _41
REMARK   15  A    between atoms: _46  and  _47
REMARK   16  A    between atoms: _49  and  _51
REMARK   17  A    between atoms: _51  and  _52
REMARK   18  A    between atoms: _54  and  _56
REMARK   19  A    between atoms: _56  and  _57
REMARK   20  A    between atoms: _56  and  _59
REMARK   21  A    between atoms: _59  and  _60
REMARK   22  A    between atoms: _60  and  _61
REMARK   23  A    between atoms: _61  and  _62
REMARK   24  A    between atoms: _62  and  _63
REMARK   25  A    between atoms: _67  and  _69
REMARK   26  A    between atoms: _69  and  _70
REMARK   27  A    between atoms: _69  and  _72
REMARK   28  A    between atoms: _72  and  _73
REMARK   29  A    between atoms: _78  and  _80
REMARK   30  A    between atoms: _80  and  _81
REMARK   31  A    between atoms: _80  and  _83
REMARK   32  A    between atoms: _83  and  _84
REMARK   33  A    between atoms: _89  and  _91
REMARK   34  A    between atoms: _91  and  _92
REMARK   35  A    between atoms: _95  and  _96
REMARK   36  A    between atoms: _101  and  _103
REMARK   37  A    between atoms: _103  and  _104
REMARK   38  A    between atoms: _103  and  _106
REMARK   39  A    between atoms: _106  and  _107
REMARK   40  A    between atoms: _107  and  _108
REMARK   41  A    between atoms: _111  and  _113
REMARK   42  A    between atoms: _113  and  _114
REMARK   43  A    between atoms: _113  and  _116
REMARK   44  A    between atoms: _116  and  _117
REMARK   45  A    between atoms: _122  and  _124
REMARK   46  A    between atoms: _124  and  _125
REMARK   47  A    between atoms: _124  and  _127
REMARK   48  A    between atoms: _127  and  _128
REMARK   49  A    between atoms: _138  and  _140
REMARK   50  A    between atoms: _140  and  _141
REMARK   51  A    between atoms: _140  and  _143
REMARK   52  A    between atoms: _143  and  _144
REMARK   53  A    between atoms: _149  and  _151
REMARK   54  A    between atoms: _151  and  _152
REMARK   55  A    between atoms: _151  and  _154
REMARK   56  A    between atoms: _154  and  _155
REMARK   57  A    between atoms: _155  and  _156
REMARK   58  A    between atoms: _156  and  _157
REMARK   59  A    between atoms: _157  and  _158
REMARK   60  A    between atoms: _162  and  _164
REMARK   61  A    between atoms: _164  and  _165
REMARK   62  A    between atoms: _164  and  _167
REMARK   63  A    between atoms: _167  and  _168
REMARK   64  A    between atoms: _171  and  _173
REMARK   65  A    between atoms: _173  and  _174
REMARK   66  A    between atoms: _173  and  _176
REMARK   67  A    between atoms: _176  and  _177
REMARK   68  A    between atoms: _184  and  _185
REMARK   69  A    between atoms: _190  and  _192
REMARK   70  A    between atoms: _192  and  _193
REMARK   71  A    between atoms: _196  and  _198
REMARK   72  A    between atoms: _198  and  _199
REMARK   73  A    between atoms: _198  and  _201
REMARK   74  A    between atoms: _201  and  _202
REMARK   75  A    between atoms: _208  and  _209
REMARK   76  A    between atoms: _214  and  _216
REMARK   77  A    between atoms: _216  and  _217
REMARK   78  A    between atoms: _216  and  _219
REMARK   79  A    between atoms: _219  and  _220
REMARK                            x       y       z     vdW  Elec       q    Type
REMARK                         _______ _______ _______ _____ _____    ______ ____
ROOT
ATOM      1  CB  HIS A   1      20.792  -1.972   8.817  0.00  0.00    +0.072 C 
ENDROOT
BRANCH   1   2
ATOM      2  CG  HIS A   1      22.029  -1.135   8.608  0.00  0.00    +0.082 A 
ATOM      3  ND1 HIS A   1      23.309  -1.666   8.655  0.00  0.00    -0.227 NA
ATOM      4  CE1 HIS A   1      24.195  -0.708   8.420  0.00  0.00    +0.199 A 
ATOM      5  NE2 HIS A   1      23.538   0.418   8.197  0.00  0.00    -0.221 NA
ATOM      6  CD2 HIS A   1      22.177   0.174   8.307  0.00  0.00    +0.115 A 
ENDBRANCH   1   2
BRANCH   1   7
ATOM      7  CA  HIS A   1      20.538  -2.981   7.681  0.00  0.00    +0.139 C 
BRANCH   7   8
ATOM      8  N   HIS A   1      20.640  -2.332   6.350  0.00  0.00    -0.239 NA
ATOM      9  H   HIS A   1      19.972  -1.571   6.114  0.00  0.00    +0.142 HD
ENDBRANCH   7   8
BRANCH   7  10
ATOM     10  C   HIS A   1      19.148  -3.591   7.943  0.00  0.00    +0.224 C 
ATOM     11  O   HIS A   1      19.030  -4.540   8.690  0.00  0.00    -0.287 OA
ENDBRANCH   7  10
ENDBRANCH   1   7
TORSDOF 4
REMARK  Name = ../refined-set-2016/4jsz/4jsz_pocket.pdb
REMARK  79 active torsions:
REMARK  status: ('A' for Active; 'I' for Inactive)
REMARK    1  A    between atoms: _1  and  _5
REMARK    2  A    between atoms: _5  and  _6
REMARK    3  A    between atoms: _5  and  _8
REMARK    4  A    between atoms: _8  and  _9
REMARK    5  A    between atoms: _14  and  _16
REMARK    6  A    between atoms: _16  and  _17
REMARK    7  A    between atoms: _16  and  _19
REMARK    8  A    between atoms: _19  and  _20
REMARK    9  A    between atoms: _30  and  _32
REMARK   10  A    between atoms: _32  and  _33
REMARK   11  A    between atoms: _35  and  _37
REMARK   12  A    between atoms: _37  and  _38
REMARK   13  A    between atoms: _37  and  _40
REMARK   14  A    between atoms: _40  and  _41
REMARK   15  A    between atoms: _46  and  _47
REMARK   16  A    between atoms: _49  and  _51
REMARK   17  A    between atoms: _51  and  _52
REMARK   18  A    between atoms: _54  and  _56
REMARK   19  A    between atoms: _56  and  _57
REMARK   20  A    between atoms: _56  and  _59
REMARK   21  A    between atoms: _59  and  _60
REMARK   22  A    between atoms: _60  and  _61
REMARK   23  A    between atoms: _61  and  _62
REMARK   24  A    between atoms: _62  and  _63
REMARK   25  A    between atoms: _67  and  _69
REMARK   26  A    between atoms: _69  and  _70
REMARK   27  A    between atoms: _69  and  _72
REMARK   28  A    between atoms: _72  and  _73
REMARK   29  A    between atoms: _78  and  _80
REMARK   30  A    between atoms: _80  and  _81
REMARK   31  A    between atoms: _80  and  _83
REMARK   32  A    between atoms: _83  and  _84
REMARK   33  A    between atoms: _89  and  _91
REMARK   34  A    between atoms: _91  and  _92
REMARK   35  A    between atoms: _95  and  _96
REMARK   36  A    between atoms: _101  and  _103
REMARK   37  A    between atoms: _103  and  _104
REMARK   38  A    between atoms: _103  and  _106
REMARK   39  A    between atoms: _106  and  _107
REMARK   40  A    between atoms: _107  and  _108
REMARK   41  A    between atoms: _111  and  _113
REMARK   42  A    between atoms: _113  and  _114
REMARK   43  A    between atoms: _113  and  _116
REMARK   44  A    between atoms: _116  and  _117
REMARK   45  A    between atoms: _122  and  _124
REMARK   46  A    between atoms: _124  and  _125
REMARK   47  A    between atoms: _124  and  _127
REMARK   48  A    between atoms: _127  and  _128
REMARK   49  A    between atoms: _138  and  _140
REMARK   50  A    between atoms: _140  and  _141
REMARK   51  A    between atoms: _140  and  _143
REMARK   52  A    between atoms: _143  and  _144
REMARK   53  A    between atoms: _149  and  _151
REMARK   54  A    between atoms: _151  and  _152
REMARK   55  A    between atoms: _151  and  _154
REMARK   56  A    between atoms: _154  and  _155
REMARK   57  A    between atoms: _155  and  _156
REMARK   58  A    between atoms: _156  and  _157
REMARK   59  A    between atoms: _157  and  _158
REMARK   60  A    between atoms: _162  and  _164
REMARK   61  A    between atoms: _164  and  _165
REMARK   62  A    between atoms: _164  and  _167
REMARK   63  A    between atoms: _167  and  _168
REMARK   64  A    between atoms: _171  and  _173
REMARK   65  A    between atoms: _173  and  _174
REMARK   66  A    between atoms: _173  and  _176
REMARK   67  A    between atoms: _176  and  _177
REMARK   68  A    between atoms: _184  and  _185
REMARK   69  A    between atoms: _190  and  _192
REMARK   70  A    between atoms: _192  and  _193
REMARK   71  A    between atoms: _196  and  _198
REMARK   72  A    between atoms: _198  and  _199
REMARK   73  A    between atoms: _198  and  _201
REMARK   74  A    between atoms: _201  and  _202
REMARK   75  A    between atoms: _208  and  _209
REMARK   76  A    between atoms: _214  and  _216
REMARK   77  A    between atoms: _216  and  _217
REMARK   78  A    between atoms: _216  and  _219
REMARK   79  A    between atoms: _219  and  _220
REMARK                            x       y       z     vdW  Elec       q    Type
REMARK                         _______ _______ _______ _____ _____    ______ ____
ROOT
ATOM      1  N   PRO A   1      23.306   1.238  15.825  0.00  0.00    -0.212 NA
ATOM      2  CA  PRO A   1      24.111   2.448  16.003  0.00  0.00    +0.137 C 
ATOM      3  CB  PRO A   1      25.331   2.157  15.111  0.00  0.00    +0.027 C 
ATOM      4  CG  PRO A   1      25.562   0.620  15.427  0.00  0.00    +0.021 C 
ATOM      5  CD  PRO A   1      24.113   0.083  15.358  0.00  0.00    +0.089 C 
ENDROOT
BRANCH   2   6
ATOM      6  C   PRO A   1      23.255   3.620  15.468  0.00  0.00    +0.224 C 
ATOM      7  O   PRO A   1      22.617   3.468  14.401  0.00  0.00    -0.287 OA
ENDBRANCH   2   6
TORSDOF 1
REMARK  Name = ../refined-set-2016/4jsz/4jsz_pocket.pdb
REMARK  79 active torsions:
REMARK  status: ('A' for Active; 'I' for Inactive)
REMARK    1  A    between atoms: _1  and  _5
REMARK    2  A    between atoms: _5  and  _6
REMARK    3  A    between atoms: _5  and  _8
REMARK    4  A    between atoms: _8  and  _9
REMARK    5  A    between atoms: _14  and  _16
REMARK    6  A    between atoms: _16  and  _17
REMARK    7  A    between atoms: _16  and  _19
REMARK    8  A    between atoms: _19  and  _20
REMARK    9  A    between atoms: _30  and  _32
REMARK   10  A    between atoms: _32  and  _33
REMARK   11  A    between atoms: _35  and  _37
REMARK   12  A    between atoms: _37  and  _38
REMARK   13  A    between atoms: _37  and  _40
REMARK   14  A    between atoms: _40  and  _41
REMARK   15  A    between atoms: _46  and  _47
REMARK   16  A    between atoms: _49  and  _51
REMARK   17  A    between atoms: _51  and  _52
REMARK   18  A    between atoms: _54  and  _56
REMARK   19  A    between atoms: _56  and  _57
REMARK   20  A    between atoms: _56  and  _59
REMARK   21  A    between atoms: _59  and  _60
REMARK   22  A    between atoms: _60  and  _61
REMARK   23  A    between atoms: _61  and  _62
REMARK   24  A    between atoms: _62  and  _63
REMARK   25  A    between atoms: _67  and  _69
REMARK   26  A    between atoms: _69  and  _70
REMARK   27  A    between atoms: _69  and  _72
REMARK   28  A    between atoms: _72  and  _73
REMARK   29  A    between atoms: _78  and  _80
REMARK   30  A    between atoms: _80  and  _81
REMARK   31  A    between atoms: _80  and  _83
REMARK   32  A    between atoms: _83  and  _84
REMARK   33  A    between atoms: _89  and  _91
REMARK   34  A    between atoms: _91  and  _92
REMARK   35  A    between atoms: _95  and  _96
REMARK   36  A    between atoms: _101  and  _103
REMARK   37  A    between atoms: _103  and  _104
REMARK   38  A    between atoms: _103  and  _106
REMARK   39  A    between atoms: _106  and  _107
REMARK   40  A    between atoms: _107  and  _108
REMARK   41  A    between atoms: _111  and  _113
REMARK   42  A    between atoms: _113  and  _114
REMARK   43  A    between atoms: _113  and  _116
REMARK   44  A    between atoms: _116  and  _117
REMARK   45  A    between atoms: _122  and  _124
REMARK   46  A    between atoms: _124  and  _125
REMARK   47  A    between atoms: _124  and  _127
REMARK   48  A    between atoms: _127  and  _128
REMARK   49  A    between atoms: _138  and  _140
REMARK   50  A    between atoms: _140  and  _141
REMARK   51  A    between atoms: _140  and  _143
REMARK   52  A    between atoms: _143  and  _144
REMARK   53  A    between atoms: _149  and  _151
REMARK   54  A    between atoms: _151  and  _152
REMARK   55  A    between atoms: _151  and  _154
REMARK   56  A    between atoms: _154  and  _155
REMARK   57  A    between atoms: _155  and  _156
REMARK   58  A    between atoms: _156  and  _157
REMARK   59  A    between atoms: _157  and  _158
REMARK   60  A    between atoms: _162  and  _164
REMARK   61  A    between atoms: _164  and  _165
REMARK   62  A    between atoms: _164  and  _167
REMARK   63  A    between atoms: _167  and  _168
REMARK   64  A    between atoms: _171  and  _173
REMARK   65  A    between atoms: _173  and  _174
REMARK   66  A    between atoms: _173  and  _176
REMARK   67  A    between atoms: _176  and  _177
REMARK   68  A    between atoms: _184  and  _185
REMARK   69  A    between atoms: _190  and  _192
REMARK   70  A    between atoms: _192  and  _193
REMARK   71  A    between atoms: _196  and  _198
REMARK   72  A    between atoms: _198  and  _199
REMARK   73  A    between atoms: _198  and  _201
REMARK   74  A    between atoms: _201  and  _202
REMARK   75  A    between atoms: _208  and  _209
REMARK   76  A    between atoms: _214  and  _216
REMARK   77  A    between atoms: _216  and  _217
REMARK   78  A    between atoms: _216  and  _219
REMARK   79  A    between atoms: _219  and  _220
REMARK                            x       y       z     vdW  Elec       q    Type
REMARK                         _______ _______ _______ _____ _____    ______ ____
ROOT
ATOM      1  CA  LEU A   1      22.443   3.290  20.031  0.00  0.00    +0.133 C 
ENDROOT
BRANCH   1   2
ATOM      2  N   LEU A   1      22.762   3.889  18.721  0.00  0.00    -0.239 NA
ATOM      3  H   LEU A   1      22.223   3.601  17.880  0.00  0.00    +0.142 HD
ENDBRANCH   1   2
BRANCH   1   4
ATOM      4  C   LEU A   1      22.078   4.312  21.146  0.00  0.00    +0.224 C 
ATOM      5  O   LEU A   1      22.255   4.027  22.351  0.00  0.00    -0.287 OA
ENDBRANCH   1   4
BRANCH   1   6
ATOM      6  CB  LEU A   1      23.578   2.346  20.506  0.00  0.00    +0.025 C 
BRANCH   6   7
ATOM      7  CG  LEU A   1      23.936   1.153  19.591  0.00  0.00    +0.002 C 
ATOM      8  CD2 LEU A   1      25.241   0.463  20.083  0.00  0.00    +0.000 C 
ATOM      9  CD1 LEU A   1      22.791   0.095  19.593  0.00  0.00    +0.000 C 
ENDBRANCH   6   7
ENDBRANCH   1   6
TORSDOF 4
REMARK  Name = ../refined-set-2016/4jsz/4jsz_pocket.pdb
REMARK  79 active torsions:
REMARK  status: ('A' for Active; 'I' for Inactive)
REMARK    1  A    between atoms: _1  and  _5
REMARK    2  A    between atoms: _5  and  _6
REMARK    3  A    between atoms: _5  and  _8
REMARK    4  A    between atoms: _8  and  _9
REMARK    5  A    between atoms: _14  and  _16
REMARK    6  A    between atoms: _16  and  _17
REMARK    7  A    between atoms: _16  and  _19
REMARK    8  A    between atoms: _19  and  _20
REMARK    9  A    between atoms: _30  and  _32
REMARK   10  A    between atoms: _32  and  _33
REMARK   11  A    between atoms: _35  and  _37
REMARK   12  A    between atoms: _37  and  _38
REMARK   13  A    between atoms: _37  and  _40
REMARK   14  A    between atoms: _40  and  _41
REMARK   15  A    between atoms: _46  and  _47
REMARK   16  A    between atoms: _49  and  _51
REMARK   17  A    between atoms: _51  and  _52
REMARK   18  A    between atoms: _54  and  _56
REMARK   19  A    between atoms: _56  and  _57
REMARK   20  A    between atoms: _56  and  _59
REMARK   21  A    between atoms: _59  and  _60
REMARK   22  A    between atoms: _60  and  _61
REMARK   23  A    between atoms: _61  and  _62
REMARK   24  A    between atoms: _62  and  _63
REMARK   25  A    between atoms: _67  and  _69
REMARK   26  A    between atoms: _69  and  _70
REMARK   27  A    between atoms: _69  and  _72
REMARK   28  A    between atoms: _72  and  _73
REMARK   29  A    between atoms: _78  and  _80
REMARK   30  A    between atoms: _80  and  _81
REMARK   31  A    between atoms: _80  and  _83
REMARK   32  A    between atoms: _83  and  _84
REMARK   33  A    between atoms: _89  and  _91
REMARK   34  A    between atoms: _91  and  _92
REMARK   35  A    between atoms: _95  and  _96
REMARK   36  A    between atoms: _101  and  _103
REMARK   37  A    between atoms: _103  and  _104
REMARK   38  A    between atoms: _103  and  _106
REMARK   39  A    between atoms: _106  and  _107
REMARK   40  A    between atoms: _107  and  _108
REMARK   41  A    between atoms: _111  and  _113
REMARK   42  A    between atoms: _113  and  _114
REMARK   43  A    between atoms: _113  and  _116
REMARK   44  A    between atoms: _116  and  _117
REMARK   45  A    between atoms: _122  and  _124
REMARK   46  A    between atoms: _124  and  _125
REMARK   47  A    between atoms: _124  and  _127
REMARK   48  A    between atoms: _127  and  _128
REMARK   49  A    between atoms: _138  and  _140
REMARK   50  A    between atoms: _140  and  _141
REMARK   51  A    between atoms: _140  and  _143
REMARK   52  A    between atoms: _143  and  _144
REMARK   53  A    between atoms: _149  and  _151
REMARK   54  A    between atoms: _151  and  _152
REMARK   55  A    between atoms: _151  and  _154
REMARK   56  A    between atoms: _154  and  _155
REMARK   57  A    between atoms: _155  and  _156
REMARK   58  A    between atoms: _156  and  _157
REMARK   59  A    between atoms: _157  and  _158
REMARK   60  A    between atoms: _162  and  _164
REMARK   61  A    between atoms: _164  and  _165
REMARK   62  A    between atoms: _164  and  _167
REMARK   63  A    between atoms: _167  and  _168
REMARK   64  A    between atoms: _171  and  _173
REMARK   65  A    between atoms: _173  and  _174
REMARK   66  A    between atoms: _173  and  _176
REMARK   67  A    between atoms: _176  and  _177
REMARK   68  A    between atoms: _184  and  _185
REMARK   69  A    between atoms: _190  and  _192
REMARK   70  A    between atoms: _192  and  _193
REMARK   71  A    between atoms: _196  and  _198
REMARK   72  A    between atoms: _198  and  _199
REMARK   73  A    between atoms: _198  and  _201
REMARK   74  A    between atoms: _201  and  _202
REMARK   75  A    between atoms: _208  and  _209
REMARK   76  A    between atoms: _214  and  _216
REMARK   77  A    between atoms: _216  and  _217
REMARK   78  A    between atoms: _216  and  _219
REMARK   79  A    between atoms: _219  and  _220
REMARK                            x       y       z     vdW  Elec       q    Type
REMARK                         _______ _______ _______ _____ _____    ______ ____
ROOT
ATOM      1  O   HOH     1      29.328  -9.269  16.547  0.00  0.00    +0.000 OA
ENDROOT
TORSDOF 0
REMARK  Name = ../refined-set-2016/4jsz/4jsz_pocket.pdb
REMARK  79 active torsions:
REMARK  status: ('A' for Active; 'I' for Inactive)
REMARK    1  A    between atoms: _1  and  _5
REMARK    2  A    between atoms: _5  and  _6
REMARK    3  A    between atoms: _5  and  _8
REMARK    4  A    between atoms: _8  and  _9
REMARK    5  A    between atoms: _14  and  _16
REMARK    6  A    between atoms: _16  and  _17
REMARK    7  A    between atoms: _16  and  _19
REMARK    8  A    between atoms: _19  and  _20
REMARK    9  A    between atoms: _30  and  _32
REMARK   10  A    between atoms: _32  and  _33
REMARK   11  A    between atoms: _35  and  _37
REMARK   12  A    between atoms: _37  and  _38
REMARK   13  A    between atoms: _37  and  _40
REMARK   14  A    between atoms: _40  and  _41
REMARK   15  A    between atoms: _46  and  _47
REMARK   16  A    between atoms: _49  and  _51
REMARK   17  A    between atoms: _51  and  _52
REMARK   18  A    between atoms: _54  and  _56
REMARK   19  A    between atoms: _56  and  _57
REMARK   20  A    between atoms: _56  and  _59
REMARK   21  A    between atoms: _59  and  _60
REMARK   22  A    between atoms: _60  and  _61
REMARK   23  A    between atoms: _61  and  _62
REMARK   24  A    between atoms: _62  and  _63
REMARK   25  A    between atoms: _67  and  _69
REMARK   26  A    between atoms: _69  and  _70
REMARK   27  A    between atoms: _69  and  _72
REMARK   28  A    between atoms: _72  and  _73
REMARK   29  A    between atoms: _78  and  _80
REMARK   30  A    between atoms: _80  and  _81
REMARK   31  A    between atoms: _80  and  _83
REMARK   32  A    between atoms: _83  and  _84
REMARK   33  A    between atoms: _89  and  _91
REMARK   34  A    between atoms: _91  and  _92
REMARK   35  A    between atoms: _95  and  _96
REMARK   36  A    between atoms: _101  and  _103
REMARK   37  A    between atoms: _103  and  _104
REMARK   38  A    between atoms: _103  and  _106
REMARK   39  A    between atoms: _106  and  _107
REMARK   40  A    between atoms: _107  and  _108
REMARK   41  A    between atoms: _111  and  _113
REMARK   42  A    between atoms: _113  and  _114
REMARK   43  A    between atoms: _113  and  _116
REMARK   44  A    between atoms: _116  and  _117
REMARK   45  A    between atoms: _122  and  _124
REMARK   46  A    between atoms: _124  and  _125
REMARK   47  A    between atoms: _124  and  _127
REMARK   48  A    between atoms: _127  and  _128
REMARK   49  A    between atoms: _138  and  _140
REMARK   50  A    between atoms: _140  and  _141
REMARK   51  A    between atoms: _140  and  _143
REMARK   52  A    between atoms: _143  and  _144
REMARK   53  A    between atoms: _149  and  _151
REMARK   54  A    between atoms: _151  and  _152
REMARK   55  A    between atoms: _151  and  _154
REMARK   56  A    between atoms: _154  and  _155
REMARK   57  A    between atoms: _155  and  _156
REMARK   58  A    between atoms: _156  and  _157
REMARK   59  A    between atoms: _157  and  _158
REMARK   60  A    between atoms: _162  and  _164
REMARK   61  A    between atoms: _164  and  _165
REMARK   62  A    between atoms: _164  and  _167
REMARK   63  A    between atoms: _167  and  _168
REMARK   64  A    between atoms: _171  and  _173
REMARK   65  A    between atoms: _173  and  _174
REMARK   66  A    between atoms: _173  and  _176
REMARK   67  A    between atoms: _176  and  _177
REMARK   68  A    between atoms: _184  and  _185
REMARK   69  A    between atoms: _190  and  _192
REMARK   70  A    between atoms: _192  and  _193
REMARK   71  A    between atoms: _196  and  _198
REMARK   72  A    between atoms: _198  and  _199
REMARK   73  A    between atoms: _198  and  _201
REMARK   74  A    between atoms: _201  and  _202
REMARK   75  A    between atoms: _208  and  _209
REMARK   76  A    between atoms: _214  and  _216
REMARK   77  A    between atoms: _216  and  _217
REMARK   78  A    between atoms: _216  and  _219
REMARK   79  A    between atoms: _219  and  _220
REMARK                            x       y       z     vdW  Elec       q    Type
REMARK                         _______ _______ _______ _____ _____    ______ ____
ROOT
ATOM      1  O   HOH     1      36.191  -6.545  11.942  0.00  0.00    +0.000 OA
ENDROOT
TORSDOF 0
REMARK  Name = ../refined-set-2016/4jsz/4jsz_pocket.pdb
REMARK  79 active torsions:
REMARK  status: ('A' for Active; 'I' for Inactive)
REMARK    1  A    between atoms: _1  and  _5
REMARK    2  A    between atoms: _5  and  _6
REMARK    3  A    between atoms: _5  and  _8
REMARK    4  A    between atoms: _8  and  _9
REMARK    5  A    between atoms: _14  and  _16
REMARK    6  A    between atoms: _16  and  _17
REMARK    7  A    between atoms: _16  and  _19
REMARK    8  A    between atoms: _19  and  _20
REMARK    9  A    between atoms: _30  and  _32
REMARK   10  A    between atoms: _32  and  _33
REMARK   11  A    between atoms: _35  and  _37
REMARK   12  A    between atoms: _37  and  _38
REMARK   13  A    between atoms: _37  and  _40
REMARK   14  A    between atoms: _40  and  _41
REMARK   15  A    between atoms: _46  and  _47
REMARK   16  A    between atoms: _49  and  _51
REMARK   17  A    between atoms: _51  and  _52
REMARK   18  A    between atoms: _54  and  _56
REMARK   19  A    between atoms: _56  and  _57
REMARK   20  A    between atoms: _56  and  _59
REMARK   21  A    between atoms: _59  and  _60
REMARK   22  A    between atoms: _60  and  _61
REMARK   23  A    between atoms: _61  and  _62
REMARK   24  A    between atoms: _62  and  _63
REMARK   25  A    between atoms: _67  and  _69
REMARK   26  A    between atoms: _69  and  _70
REMARK   27  A    between atoms: _69  and  _72
REMARK   28  A    between atoms: _72  and  _73
REMARK   29  A    between atoms: _78  and  _80
REMARK   30  A    between atoms: _80  and  _81
REMARK   31  A    between atoms: _80  and  _83
REMARK   32  A    between atoms: _83  and  _84
REMARK   33  A    between atoms: _89  and  _91
REMARK   34  A    between atoms: _91  and  _92
REMARK   35  A    between atoms: _95  and  _96
REMARK   36  A    between atoms: _101  and  _103
REMARK   37  A    between atoms: _103  and  _104
REMARK   38  A    between atoms: _103  and  _106
REMARK   39  A    between atoms: _106  and  _107
REMARK   40  A    between atoms: _107  and  _108
REMARK   41  A    between atoms: _111  and  _113
REMARK   42  A    between atoms: _113  and  _114
REMARK   43  A    between atoms: _113  and  _116
REMARK   44  A    between atoms: _116  and  _117
REMARK   45  A    between atoms: _122  and  _124
REMARK   46  A    between atoms: _124  and  _125
REMARK   47  A    between atoms: _124  and  _127
REMARK   48  A    between atoms: _127  and  _128
REMARK   49  A    between atoms: _138  and  _140
REMARK   50  A    between atoms: _140  and  _141
REMARK   51  A    between atoms: _140  and  _143
REMARK   52  A    between atoms: _143  and  _144
REMARK   53  A    between atoms: _149  and  _151
REMARK   54  A    between atoms: _151  and  _152
REMARK   55  A    between atoms: _151  and  _154
REMARK   56  A    between atoms: _154  and  _155
REMARK   57  A    between atoms: _155  and  _156
REMARK   58  A    between atoms: _156  and  _157
REMARK   59  A    between atoms: _157  and  _158
REMARK   60  A    between atoms: _162  and  _164
REMARK   61  A    between atoms: _164  and  _165
REMARK   62  A    between atoms: _164  and  _167
REMARK   63  A    between atoms: _167  and  _168
REMARK   64  A    between atoms: _171  and  _173
REMARK   65  A    between atoms: _173  and  _174
REMARK   66  A    between atoms: _173  and  _176
REMARK   67  A    between atoms: _176  and  _177
REMARK   68  A    between atoms: _184  and  _185
REMARK   69  A    between atoms: _190  and  _192
REMARK   70  A    between atoms: _192  and  _193
REMARK   71  A    between atoms: _196  and  _198
REMARK   72  A    between atoms: _198  and  _199
REMARK   73  A    between atoms: _198  and  _201
REMARK   74  A    between atoms: _201  and  _202
REMARK   75  A    between atoms: _208  and  _209
REMARK   76  A    between atoms: _214  and  _216
REMARK   77  A    between atoms: _216  and  _217
REMARK   78  A    between atoms: _216  and  _219
REMARK   79  A    between atoms: _219  and  _220
REMARK                            x       y       z     vdW  Elec       q    Type
REMARK                         _______ _______ _______ _____ _____    ______ ____
ROOT
ATOM      1  O   HOH     1      29.599  -3.770  21.078  0.00  0.00    +0.000 OA
ENDROOT
TORSDOF 0
REMARK  Name = ../refined-set-2016/4jsz/4jsz_pocket.pdb
REMARK  79 active torsions:
REMARK  status: ('A' for Active; 'I' for Inactive)
REMARK    1  A    between atoms: _1  and  _5
REMARK    2  A    between atoms: _5  and  _6
REMARK    3  A    between atoms: _5  and  _8
REMARK    4  A    between atoms: _8  and  _9
REMARK    5  A    between atoms: _14  and  _16
REMARK    6  A    between atoms: _16  and  _17
REMARK    7  A    between atoms: _16  and  _19
REMARK    8  A    between atoms: _19  and  _20
REMARK    9  A    between atoms: _30  and  _32
REMARK   10  A    between atoms: _32  and  _33
REMARK   11  A    between atoms: _35  and  _37
REMARK   12  A    between atoms: _37  and  _38
REMARK   13  A    between atoms: _37  and  _40
REMARK   14  A    between atoms: _40  and  _41
REMARK   15  A    between atoms: _46  and  _47
REMARK   16  A    between atoms: _49  and  _51
REMARK   17  A    between atoms: _51  and  _52
REMARK   18  A    between atoms: _54  and  _56
REMARK   19  A    between atoms: _56  and  _57
REMARK   20  A    between atoms: _56  and  _59
REMARK   21  A    between atoms: _59  and  _60
REMARK   22  A    between atoms: _60  and  _61
REMARK   23  A    between atoms: _61  and  _62
REMARK   24  A    between atoms: _62  and  _63
REMARK   25  A    between atoms: _67  and  _69
REMARK   26  A    between atoms: _69  and  _70
REMARK   27  A    between atoms: _69  and  _72
REMARK   28  A    between atoms: _72  and  _73
REMARK   29  A    between atoms: _78  and  _80
REMARK   30  A    between atoms: _80  and  _81
REMARK   31  A    between atoms: _80  and  _83
REMARK   32  A    between atoms: _83  and  _84
REMARK   33  A    between atoms: _89  and  _91
REMARK   34  A    between atoms: _91  and  _92
REMARK   35  A    between atoms: _95  and  _96
REMARK   36  A    between atoms: _101  and  _103
REMARK   37  A    between atoms: _103  and  _104
REMARK   38  A    between atoms: _103  and  _106
REMARK   39  A    between atoms: _106  and  _107
REMARK   40  A    between atoms: _107  and  _108
REMARK   41  A    between atoms: _111  and  _113
REMARK   42  A    between atoms: _113  and  _114
REMARK   43  A    between atoms: _113  and  _116
REMARK   44  A    between atoms: _116  and  _117
REMARK   45  A    between atoms: _122  and  _124
REMARK   46  A    between atoms: _124  and  _125
REMARK   47  A    between atoms: _124  and  _127
REMARK   48  A    between atoms: _127  and  _128
REMARK   49  A    between atoms: _138  and  _140
REMARK   50  A    between atoms: _140  and  _141
REMARK   51  A    between atoms: _140  and  _143
REMARK   52  A    between atoms: _143  and  _144
REMARK   53  A    between atoms: _149  and  _151
REMARK   54  A    between atoms: _151  and  _152
REMARK   55  A    between atoms: _151  and  _154
REMARK   56  A    between atoms: _154  and  _155
REMARK   57  A    between atoms: _155  and  _156
REMARK   58  A    between atoms: _156  and  _157
REMARK   59  A    between atoms: _157  and  _158
REMARK   60  A    between atoms: _162  and  _164
REMARK   61  A    between atoms: _164  and  _165
REMARK   62  A    between atoms: _164  and  _167
REMARK   63  A    between atoms: _167  and  _168
REMARK   64  A    between atoms: _171  and  _173
REMARK   65  A    between atoms: _173  and  _174
REMARK   66  A    between atoms: _173  and  _176
REMARK   67  A    between atoms: _176  and  _177
REMARK   68  A    between atoms: _184  and  _185
REMARK   69  A    between atoms: _190  and  _192
REMARK   70  A    between atoms: _192  and  _193
REMARK   71  A    between atoms: _196  and  _198
REMARK   72  A    between atoms: _198  and  _199
REMARK   73  A    between atoms: _198  and  _201
REMARK   74  A    between atoms: _201  and  _202
REMARK   75  A    between atoms: _208  and  _209
REMARK   76  A    between atoms: _214  and  _216
REMARK   77  A    between atoms: _216  and  _217
REMARK   78  A    between atoms: _216  and  _219
REMARK   79  A    between atoms: _219  and  _220
REMARK                            x       y       z     vdW  Elec       q    Type
REMARK                         _______ _______ _______ _____ _____    ______ ____
ROOT
ATOM      1  O   HOH     1      36.819  -2.009  14.800  0.00  0.00    +0.000 OA
ENDROOT
TORSDOF 0
REMARK  Name = ../refined-set-2016/4jsz/4jsz_pocket.pdb
REMARK  79 active torsions:
REMARK  status: ('A' for Active; 'I' for Inactive)
REMARK    1  A    between atoms: _1  and  _5
REMARK    2  A    between atoms: _5  and  _6
REMARK    3  A    between atoms: _5  and  _8
REMARK    4  A    between atoms: _8  and  _9
REMARK    5  A    between atoms: _14  and  _16
REMARK    6  A    between atoms: _16  and  _17
REMARK    7  A    between atoms: _16  and  _19
REMARK    8  A    between atoms: _19  and  _20
REMARK    9  A    between atoms: _30  and  _32
REMARK   10  A    between atoms: _32  and  _33
REMARK   11  A    between atoms: _35  and  _37
REMARK   12  A    between atoms: _37  and  _38
REMARK   13  A    between atoms: _37  and  _40
REMARK   14  A    between atoms: _40  and  _41
REMARK   15  A    between atoms: _46  and  _47
REMARK   16  A    between atoms: _49  and  _51
REMARK   17  A    between atoms: _51  and  _52
REMARK   18  A    between atoms: _54  and  _56
REMARK   19  A    between atoms: _56  and  _57
REMARK   20  A    between atoms: _56  and  _59
REMARK   21  A    between atoms: _59  and  _60
REMARK   22  A    between atoms: _60  and  _61
REMARK   23  A    between atoms: _61  and  _62
REMARK   24  A    between atoms: _62  and  _63
REMARK   25  A    between atoms: _67  and  _69
REMARK   26  A    between atoms: _69  and  _70
REMARK   27  A    between atoms: _69  and  _72
REMARK   28  A    between atoms: _72  and  _73
REMARK   29  A    between atoms: _78  and  _80
REMARK   30  A    between atoms: _80  and  _81
REMARK   31  A    between atoms: _80  and  _83
REMARK   32  A    between atoms: _83  and  _84
REMARK   33  A    between atoms: _89  and  _91
REMARK   34  A    between atoms: _91  and  _92
REMARK   35  A    between atoms: _95  and  _96
REMARK   36  A    between atoms: _101  and  _103
REMARK   37  A    between atoms: _103  and  _104
REMARK   38  A    between atoms: _103  and  _106
REMARK   39  A    between atoms: _106  and  _107
REMARK   40  A    between atoms: _107  and  _108
REMARK   41  A    between atoms: _111  and  _113
REMARK   42  A    between atoms: _113  and  _114
REMARK   43  A    between atoms: _113  and  _116
REMARK   44  A    between atoms: _116  and  _117
REMARK   45  A    between atoms: _122  and  _124
REMARK   46  A    between atoms: _124  and  _125
REMARK   47  A    between atoms: _124  and  _127
REMARK   48  A    between atoms: _127  and  _128
REMARK   49  A    between atoms: _138  and  _140
REMARK   50  A    between atoms: _140  and  _141
REMARK   51  A    between atoms: _140  and  _143
REMARK   52  A    between atoms: _143  and  _144
REMARK   53  A    between atoms: _149  and  _151
REMARK   54  A    between atoms: _151  and  _152
REMARK   55  A    between atoms: _151  and  _154
REMARK   56  A    between atoms: _154  and  _155
REMARK   57  A    between atoms: _155  and  _156
REMARK   58  A    between atoms: _156  and  _157
REMARK   59  A    between atoms: _157  and  _158
REMARK   60  A    between atoms: _162  and  _164
REMARK   61  A    between atoms: _164  and  _165
REMARK   62  A    between atoms: _164  and  _167
REMARK   63  A    between atoms: _167  and  _168
REMARK   64  A    between atoms: _171  and  _173
REMARK   65  A    between atoms: _173  and  _174
REMARK   66  A    between atoms: _173  and  _176
REMARK   67  A    between atoms: _176  and  _177
REMARK   68  A    between atoms: _184  and  _185
REMARK   69  A    between atoms: _190  and  _192
REMARK   70  A    between atoms: _192  and  _193
REMARK   71  A    between atoms: _196  and  _198
REMARK   72  A    between atoms: _198  and  _199
REMARK   73  A    between atoms: _198  and  _201
REMARK   74  A    between atoms: _201  and  _202
REMARK   75  A    between atoms: _208  and  _209
REMARK   76  A    between atoms: _214  and  _216
REMARK   77  A    between atoms: _216  and  _217
REMARK   78  A    between atoms: _216  and  _219
REMARK   79  A    between atoms: _219  and  _220
REMARK                            x       y       z     vdW  Elec       q    Type
REMARK                         _______ _______ _______ _____ _____    ______ ____
ROOT
ATOM      1  O   HOH     1      36.447   3.071  20.790  0.00  0.00    +0.000 OA
ENDROOT
TORSDOF 0
REMARK  Name = ../refined-set-2016/4jsz/4jsz_pocket.pdb
REMARK  79 active torsions:
REMARK  status: ('A' for Active; 'I' for Inactive)
REMARK    1  A    between atoms: _1  and  _5
REMARK    2  A    between atoms: _5  and  _6
REMARK    3  A    between atoms: _5  and  _8
REMARK    4  A    between atoms: _8  and  _9
REMARK    5  A    between atoms: _14  and  _16
REMARK    6  A    between atoms: _16  and  _17
REMARK    7  A    between atoms: _16  and  _19
REMARK    8  A    between atoms: _19  and  _20
REMARK    9  A    between atoms: _30  and  _32
REMARK   10  A    between atoms: _32  and  _33
REMARK   11  A    between atoms: _35  and  _37
REMARK   12  A    between atoms: _37  and  _38
REMARK   13  A    between atoms: _37  and  _40
REMARK   14  A    between atoms: _40  and  _41
REMARK   15  A    between atoms: _46  and  _47
REMARK   16  A    between atoms: _49  and  _51
REMARK   17  A    between atoms: _51  and  _52
REMARK   18  A    between atoms: _54  and  _56
REMARK   19  A    between atoms: _56  and  _57
REMARK   20  A    between atoms: _56  and  _59
REMARK   21  A    between atoms: _59  and  _60
REMARK   22  A    between atoms: _60  and  _61
REMARK   23  A    between atoms: _61  and  _62
REMARK   24  A    between atoms: _62  and  _63
REMARK   25  A    between atoms: _67  and  _69
REMARK   26  A    between atoms: _69  and  _70
REMARK   27  A    between atoms: _69  and  _72
REMARK   28  A    between atoms: _72  and  _73
REMARK   29  A    between atoms: _78  and  _80
REMARK   30  A    between atoms: _80  and  _81
REMARK   31  A    between atoms: _80  and  _83
REMARK   32  A    between atoms: _83  and  _84
REMARK   33  A    between atoms: _89  and  _91
REMARK   34  A    between atoms: _91  and  _92
REMARK   35  A    between atoms: _95  and  _96
REMARK   36  A    between atoms: _101  and  _103
REMARK   37  A    between atoms: _103  and  _104
REMARK   38  A    between atoms: _103  and  _106
REMARK   39  A    between atoms: _106  and  _107
REMARK   40  A    between atoms: _107  and  _108
REMARK   41  A    between atoms: _111  and  _113
REMARK   42  A    between atoms: _113  and  _114
REMARK   43  A    between atoms: _113  and  _116
REMARK   44  A    between atoms: _116  and  _117
REMARK   45  A    between atoms: _122  and  _124
REMARK   46  A    between atoms: _124  and  _125
REMARK   47  A    between atoms: _124  and  _127
REMARK   48  A    between atoms: _127  and  _128
REMARK   49  A    between atoms: _138  and  _140
REMARK   50  A    between atoms: _140  and  _141
REMARK   51  A    between atoms: _140  and  _143
REMARK   52  A    between atoms: _143  and  _144
REMARK   53  A    between atoms: _149  and  _151
REMARK   54  A    between atoms: _151  and  _152
REMARK   55  A    between atoms: _151  and  _154
REMARK   56  A    between atoms: _154  and  _155
REMARK   57  A    between atoms: _155  and  _156
REMARK   58  A    between atoms: _156  and  _157
REMARK   59  A    between atoms: _157  and  _158
REMARK   60  A    between atoms: _162  and  _164
REMARK   61  A    between atoms: _164  and  _165
REMARK   62  A    between atoms: _164  and  _167
REMARK   63  A    between atoms: _167  and  _168
REMARK   64  A    between atoms: _171  and  _173
REMARK   65  A    between atoms: _173  and  _174
REMARK   66  A    between atoms: _173  and  _176
REMARK   67  A    between atoms: _176  and  _177
REMARK   68  A    between atoms: _184  and  _185
REMARK   69  A    between atoms: _190  and  _192
REMARK   70  A    between atoms: _192  and  _193
REMARK   71  A    between atoms: _196  and  _198
REMARK   72  A    between atoms: _198  and  _199
REMARK   73  A    between atoms: _198  and  _201
REMARK   74  A    between atoms: _201  and  _202
REMARK   75  A    between atoms: _208  and  _209
REMARK   76  A    between atoms: _214  and  _216
REMARK   77  A    between atoms: _216  and  _217
REMARK   78  A    between atoms: _216  and  _219
REMARK   79  A    between atoms: _219  and  _220
REMARK                            x       y       z     vdW  Elec       q    Type
REMARK                         _______ _______ _______ _____ _____    ______ ____
ROOT
ATOM      1  O   HOH     1      35.150   5.642  19.528  0.00  0.00    +0.000 OA
ENDROOT
TORSDOF 0
REMARK  Name = ../refined-set-2016/4jsz/4jsz_pocket.pdb
REMARK  79 active torsions:
REMARK  status: ('A' for Active; 'I' for Inactive)
REMARK    1  A    between atoms: _1  and  _5
REMARK    2  A    between atoms: _5  and  _6
REMARK    3  A    between atoms: _5  and  _8
REMARK    4  A    between atoms: _8  and  _9
REMARK    5  A    between atoms: _14  and  _16
REMARK    6  A    between atoms: _16  and  _17
REMARK    7  A    between atoms: _16  and  _19
REMARK    8  A    between atoms: _19  and  _20
REMARK    9  A    between atoms: _30  and  _32
REMARK   10  A    between atoms: _32  and  _33
REMARK   11  A    between atoms: _35  and  _37
REMARK   12  A    between atoms: _37  and  _38
REMARK   13  A    between atoms: _37  and  _40
REMARK   14  A    between atoms: _40  and  _41
REMARK   15  A    between atoms: _46  and  _47
REMARK   16  A    between atoms: _49  and  _51
REMARK   17  A    between atoms: _51  and  _52
REMARK   18  A    between atoms: _54  and  _56
REMARK   19  A    between atoms: _56  and  _57
REMARK   20  A    between atoms: _56  and  _59
REMARK   21  A    between atoms: _59  and  _60
REMARK   22  A    between atoms: _60  and  _61
REMARK   23  A    between atoms: _61  and  _62
REMARK   24  A    between atoms: _62  and  _63
REMARK   25  A    between atoms: _67  and  _69
REMARK   26  A    between atoms: _69  and  _70
REMARK   27  A    between atoms: _69  and  _72
REMARK   28  A    between atoms: _72  and  _73
REMARK   29  A    between atoms: _78  and  _80
REMARK   30  A    between atoms: _80  and  _81
REMARK   31  A    between atoms: _80  and  _83
REMARK   32  A    between atoms: _83  and  _84
REMARK   33  A    between atoms: _89  and  _91
REMARK   34  A    between atoms: _91  and  _92
REMARK   35  A    between atoms: _95  and  _96
REMARK   36  A    between atoms: _101  and  _103
REMARK   37  A    between atoms: _103  and  _104
REMARK   38  A    between atoms: _103  and  _106
REMARK   39  A    between atoms: _106  and  _107
REMARK   40  A    between atoms: _107  and  _108
REMARK   41  A    between atoms: _111  and  _113
REMARK   42  A    between atoms: _113  and  _114
REMARK   43  A    between atoms: _113  and  _116
REMARK   44  A    between atoms: _116  and  _117
REMARK   45  A    between atoms: _122  and  _124
REMARK   46  A    between atoms: _124  and  _125
REMARK   47  A    between atoms: _124  and  _127
REMARK   48  A    between atoms: _127  and  _128
REMARK   49  A    between atoms: _138  and  _140
REMARK   50  A    between atoms: _140  and  _141
REMARK   51  A    between atoms: _140  and  _143
REMARK   52  A    between atoms: _143  and  _144
REMARK   53  A    between atoms: _149  and  _151
REMARK   54  A    between atoms: _151  and  _152
REMARK   55  A    between atoms: _151  and  _154
REMARK   56  A    between atoms: _154  and  _155
REMARK   57  A    between atoms: _155  and  _156
REMARK   58  A    between atoms: _156  and  _157
REMARK   59  A    between atoms: _157  and  _158
REMARK   60  A    between atoms: _162  and  _164
REMARK   61  A    between atoms: _164  and  _165
REMARK   62  A    between atoms: _164  and  _167
REMARK   63  A    between atoms: _167  and  _168
REMARK   64  A    between atoms: _171  and  _173
REMARK   65  A    between atoms: _173  and  _174
REMARK   66  A    between atoms: _173  and  _176
REMARK   67  A    between atoms: _176  and  _177
REMARK   68  A    between atoms: _184  and  _185
REMARK   69  A    between atoms: _190  and  _192
REMARK   70  A    between atoms: _192  and  _193
REMARK   71  A    between atoms: _196  and  _198
REMARK   72  A    between atoms: _198  and  _199
REMARK   73  A    between atoms: _198  and  _201
REMARK   74  A    between atoms: _201  and  _202
REMARK   75  A    between atoms: _208  and  _209
REMARK   76  A    between atoms: _214  and  _216
REMARK   77  A    between atoms: _216  and  _217
REMARK   78  A    between atoms: _216  and  _219
REMARK   79  A    between atoms: _219  and  _220
REMARK                            x       y       z     vdW  Elec       q    Type
REMARK                         _______ _______ _______ _____ _____    ______ ____
ROOT
ATOM      1  O   HOH     1      30.390   2.187  11.875  0.00  0.00    +0.000 OA
ENDROOT
TORSDOF 0
REMARK  Name = ../refined-set-2016/4jsz/4jsz_pocket.pdb
REMARK  79 active torsions:
REMARK  status: ('A' for Active; 'I' for Inactive)
REMARK    1  A    between atoms: _1  and  _5
REMARK    2  A    between atoms: _5  and  _6
REMARK    3  A    between atoms: _5  and  _8
REMARK    4  A    between atoms: _8  and  _9
REMARK    5  A    between atoms: _14  and  _16
REMARK    6  A    between atoms: _16  and  _17
REMARK    7  A    between atoms: _16  and  _19
REMARK    8  A    between atoms: _19  and  _20
REMARK    9  A    between atoms: _30  and  _32
REMARK   10  A    between atoms: _32  and  _33
REMARK   11  A    between atoms: _35  and  _37
REMARK   12  A    between atoms: _37  and  _38
REMARK   13  A    between atoms: _37  and  _40
REMARK   14  A    between atoms: _40  and  _41
REMARK   15  A    between atoms: _46  and  _47
REMARK   16  A    between atoms: _49  and  _51
REMARK   17  A    between atoms: _51  and  _52
REMARK   18  A    between atoms: _54  and  _56
REMARK   19  A    between atoms: _56  and  _57
REMARK   20  A    between atoms: _56  and  _59
REMARK   21  A    between atoms: _59  and  _60
REMARK   22  A    between atoms: _60  and  _61
REMARK   23  A    between atoms: _61  and  _62
REMARK   24  A    between atoms: _62  and  _63
REMARK   25  A    between atoms: _67  and  _69
REMARK   26  A    between atoms: _69  and  _70
REMARK   27  A    between atoms: _69  and  _72
REMARK   28  A    between atoms: _72  and  _73
REMARK   29  A    between atoms: _78  and  _80
REMARK   30  A    between atoms: _80  and  _81
REMARK   31  A    between atoms: _80  and  _83
REMARK   32  A    between atoms: _83  and  _84
REMARK   33  A    between atoms: _89  and  _91
REMARK   34  A    between atoms: _91  and  _92
REMARK   35  A    between atoms: _95  and  _96
REMARK   36  A    between atoms: _101  and  _103
REMARK   37  A    between atoms: _103  and  _104
REMARK   38  A    between atoms: _103  and  _106
REMARK   39  A    between atoms: _106  and  _107
REMARK   40  A    between atoms: _107  and  _108
REMARK   41  A    between atoms: _111  and  _113
REMARK   42  A    between atoms: _113  and  _114
REMARK   43  A    between atoms: _113  and  _116
REMARK   44  A    between atoms: _116  and  _117
REMARK   45  A    between atoms: _122  and  _124
REMARK   46  A    between atoms: _124  and  _125
REMARK   47  A    between atoms: _124  and  _127
REMARK   48  A    between atoms: _127  and  _128
REMARK   49  A    between atoms: _138  and  _140
REMARK   50  A    between atoms: _140  and  _141
REMARK   51  A    between atoms: _140  and  _143
REMARK   52  A    between atoms: _143  and  _144
REMARK   53  A    between atoms: _149  and  _151
REMARK   54  A    between atoms: _151  and  _152
REMARK   55  A    between atoms: _151  and  _154
REMARK   56  A    between atoms: _154  and  _155
REMARK   57  A    between atoms: _155  and  _156
REMARK   58  A    between atoms: _156  and  _157
REMARK   59  A    between atoms: _157  and  _158
REMARK   60  A    between atoms: _162  and  _164
REMARK   61  A    between atoms: _164  and  _165
REMARK   62  A    between atoms: _164  and  _167
REMARK   63  A    between atoms: _167  and  _168
REMARK   64  A    between atoms: _171  and  _173
REMARK   65  A    between atoms: _173  and  _174
REMARK   66  A    between atoms: _173  and  _176
REMARK   67  A    between atoms: _176  and  _177
REMARK   68  A    between atoms: _184  and  _185
REMARK   69  A    between atoms: _190  and  _192
REMARK   70  A    between atoms: _192  and  _193
REMARK   71  A    between atoms: _196  and  _198
REMARK   72  A    between atoms: _198  and  _199
REMARK   73  A    between atoms: _198  and  _201
REMARK   74  A    between atoms: _201  and  _202
REMARK   75  A    between atoms: _208  and  _209
REMARK   76  A    between atoms: _214  and  _216
REMARK   77  A    between atoms: _216  and  _217
REMARK   78  A    between atoms: _216  and  _219
REMARK   79  A    between atoms: _219  and  _220
REMARK                            x       y       z     vdW  Elec       q    Type
REMARK                         _______ _______ _______ _____ _____    ______ ____
ROOT
ATOM      1  O   HOH     1      31.224   5.492  12.522  0.00  0.00    +0.000 OA
ENDROOT
TORSDOF 0
REMARK  Name = ../refined-set-2016/4jsz/4jsz_pocket.pdb
REMARK  79 active torsions:
REMARK  status: ('A' for Active; 'I' for Inactive)
REMARK    1  A    between atoms: _1  and  _5
REMARK    2  A    between atoms: _5  and  _6
REMARK    3  A    between atoms: _5  and  _8
REMARK    4  A    between atoms: _8  and  _9
REMARK    5  A    between atoms: _14  and  _16
REMARK    6  A    between atoms: _16  and  _17
REMARK    7  A    between atoms: _16  and  _19
REMARK    8  A    between atoms: _19  and  _20
REMARK    9  A    between atoms: _30  and  _32
REMARK   10  A    between atoms: _32  and  _33
REMARK   11  A    between atoms: _35  and  _37
REMARK   12  A    between atoms: _37  and  _38
REMARK   13  A    between atoms: _37  and  _40
REMARK   14  A    between atoms: _40  and  _41
REMARK   15  A    between atoms: _46  and  _47
REMARK   16  A    between atoms: _49  and  _51
REMARK   17  A    between atoms: _51  and  _52
REMARK   18  A    between atoms: _54  and  _56
REMARK   19  A    between atoms: _56  and  _57
REMARK   20  A    between atoms: _56  and  _59
REMARK   21  A    between atoms: _59  and  _60
REMARK   22  A    between atoms: _60  and  _61
REMARK   23  A    between atoms: _61  and  _62
REMARK   24  A    between atoms: _62  and  _63
REMARK   25  A    between atoms: _67  and  _69
REMARK   26  A    between atoms: _69  and  _70
REMARK   27  A    between atoms: _69  and  _72
REMARK   28  A    between atoms: _72  and  _73
REMARK   29  A    between atoms: _78  and  _80
REMARK   30  A    between atoms: _80  and  _81
REMARK   31  A    between atoms: _80  and  _83
REMARK   32  A    between atoms: _83  and  _84
REMARK   33  A    between atoms: _89  and  _91
REMARK   34  A    between atoms: _91  and  _92
REMARK   35  A    between atoms: _95  and  _96
REMARK   36  A    between atoms: _101  and  _103
REMARK   37  A    between atoms: _103  and  _104
REMARK   38  A    between atoms: _103  and  _106
REMARK   39  A    between atoms: _106  and  _107
REMARK   40  A    between atoms: _107  and  _108
REMARK   41  A    between atoms: _111  and  _113
REMARK   42  A    between atoms: _113  and  _114
REMARK   43  A    between atoms: _113  and  _116
REMARK   44  A    between atoms: _116  and  _117
REMARK   45  A    between atoms: _122  and  _124
REMARK   46  A    between atoms: _124  and  _125
REMARK   47  A    between atoms: _124  and  _127
REMARK   48  A    between atoms: _127  and  _128
REMARK   49  A    between atoms: _138  and  _140
REMARK   50  A    between atoms: _140  and  _141
REMARK   51  A    between atoms: _140  and  _143
REMARK   52  A    between atoms: _143  and  _144
REMARK   53  A    between atoms: _149  and  _151
REMARK   54  A    between atoms: _151  and  _152
REMARK   55  A    between atoms: _151  and  _154
REMARK   56  A    between atoms: _154  and  _155
REMARK   57  A    between atoms: _155  and  _156
REMARK   58  A    between atoms: _156  and  _157
REMARK   59  A    between atoms: _157  and  _158
REMARK   60  A    between atoms: _162  and  _164
REMARK   61  A    between atoms: _164  and  _165
REMARK   62  A    between atoms: _164  and  _167
REMARK   63  A    between atoms: _167  and  _168
REMARK   64  A    between atoms: _171  and  _173
REMARK   65  A    between atoms: _173  and  _174
REMARK   66  A    between atoms: _173  and  _176
REMARK   67  A    between atoms: _176  and  _177
REMARK   68  A    between atoms: _184  and  _185
REMARK   69  A    between atoms: _190  and  _192
REMARK   70  A    between atoms: _192  and  _193
REMARK   71  A    between atoms: _196  and  _198
REMARK   72  A    between atoms: _198  and  _199
REMARK   73  A    between atoms: _198  and  _201
REMARK   74  A    between atoms: _201  and  _202
REMARK   75  A    between atoms: _208  and  _209
REMARK   76  A    between atoms: _214  and  _216
REMARK   77  A    between atoms: _216  and  _217
REMARK   78  A    between atoms: _216  and  _219
REMARK   79  A    between atoms: _219  and  _220
REMARK                            x       y       z     vdW  Elec       q    Type
REMARK                         _______ _______ _______ _____ _____    ______ ____
ROOT
ATOM      1  O   HOH     1      31.052  -9.130   8.477  0.00  0.00    +0.000 OA
ENDROOT
TORSDOF 0
