REMARK  Name = ../refined-set-2016/4x8o/4x8o_pocket.pdb
REMARK  358 active torsions:
REMARK  status: ('A' for Active; 'I' for Inactive)
REMARK    1  A    between atoms: _1  and  _3
REMARK    2  A    between atoms: _3  and  _4
REMARK    3  A    between atoms: _3  and  _6
REMARK    4  A    between atoms: _6  and  _7
REMARK    5  A    between atoms: _10  and  _12
REMARK    6  A    between atoms: _12  and  _13
REMARK    7  A    between atoms: _12  and  _15
REMARK    8  A    between atoms: _15  and  _16
REMARK    9  A    between atoms: _19  and  _21
REMARK   10  A    between atoms: _21  and  _22
REMARK   11  A    between atoms: _24  and  _26
REMARK   12  A    between atoms: _26  and  _27
REMARK   13  A    between atoms: _31  and  _32
REMARK   14  A    between atoms: _37  and  _39
REMARK   15  A    between atoms: _39  and  _40
REMARK   16  A    between atoms: _42  and  _44
REMARK   17  A    between atoms: _44  and  _45
REMARK   18  A    between atoms: _48  and  _50
REMARK   19  A    between atoms: _50  and  _51
REMARK   20  A    between atoms: _53  and  _55
REMARK   21  A    between atoms: _55  and  _56
REMARK   22  A    between atoms: _55  and  _58
REMARK   23  A    between atoms: _58  and  _59
REMARK   24  A    between atoms: _59  and  _60
REMARK   25  A    between atoms: _60  and  _61
REMARK   26  A    between atoms: _61  and  _62
REMARK   27  A    between atoms: _66  and  _68
REMARK   28  A    between atoms: _68  and  _69
REMARK   29  A    between atoms: _71  and  _73
REMARK   30  A    between atoms: _73  and  _74
REMARK   31  A    between atoms: _73  and  _76
REMARK   32  A    between atoms: _76  and  _77
REMARK   33  A    between atoms: _80  and  _82
REMARK   34  A    between atoms: _82  and  _83
REMARK   35  A    between atoms: _82  and  _85
REMARK   36  A    between atoms: _85  and  _86
REMARK   37  A    between atoms: _86  and  _87
REMARK   38  A    between atoms: _92  and  _94
REMARK   39  A    between atoms: _94  and  _95
REMARK   40  A    between atoms: _98  and  _100
REMARK   41  A    between atoms: _100  and  _101
REMARK   42  A    between atoms: _100  and  _103
REMARK   43  A    between atoms: _103  and  _104
REMARK   44  A    between atoms: _104  and  _105
REMARK   45  A    between atoms: _110  and  _112
REMARK   46  A    between atoms: _112  and  _113
REMARK   47  A    between atoms: _112  and  _115
REMARK   48  A    between atoms: _115  and  _116
REMARK   49  A    between atoms: _122  and  _124
REMARK   50  A    between atoms: _124  and  _125
REMARK   51  A    between atoms: _124  and  _127
REMARK   52  A    between atoms: _127  and  _128
REMARK   53  A    between atoms: _128  and  _129
REMARK   54  A    between atoms: _134  and  _136
REMARK   55  A    between atoms: _136  and  _137
REMARK   56  A    between atoms: _136  and  _139
REMARK   57  A    between atoms: _139  and  _140
REMARK   58  A    between atoms: _142  and  _144
REMARK   59  A    between atoms: _144  and  _145
REMARK   60  A    between atoms: _144  and  _147
REMARK   61  A    between atoms: _147  and  _148
REMARK   62  A    between atoms: _151  and  _153
REMARK   63  A    between atoms: _153  and  _154
REMARK   64  A    between atoms: _156  and  _158
REMARK   65  A    between atoms: _158  and  _159
REMARK   66  A    between atoms: _158  and  _161
REMARK   67  A    between atoms: _161  and  _162
REMARK   68  A    between atoms: _165  and  _167
REMARK   69  A    between atoms: _167  and  _168
REMARK   70  A    between atoms: _167  and  _170
REMARK   71  A    between atoms: _170  and  _171
REMARK   72  A    between atoms: _171  and  _172
REMARK   73  A    between atoms: _174  and  _176
REMARK   74  A    between atoms: _176  and  _177
REMARK   75  A    between atoms: _176  and  _179
REMARK   76  A    between atoms: _179  and  _180
REMARK   77  A    between atoms: _183  and  _185
REMARK   78  A    between atoms: _185  and  _186
REMARK   79  A    between atoms: _185  and  _188
REMARK   80  A    between atoms: _188  and  _189
REMARK   81  A    between atoms: _189  and  _190
REMARK   82  A    between atoms: _190  and  _191
REMARK   83  A    between atoms: _200  and  _202
REMARK   84  A    between atoms: _202  and  _203
REMARK   85  A    between atoms: _206  and  _208
REMARK   86  A    between atoms: _208  and  _209
REMARK   87  A    between atoms: _208  and  _211
REMARK   88  A    between atoms: _211  and  _212
REMARK   89  A    between atoms: _212  and  _213
REMARK   90  A    between atoms: _213  and  _214
REMARK   91  A    between atoms: _214  and  _215
REMARK   92  A    between atoms: _219  and  _221
REMARK   93  A    between atoms: _221  and  _222
REMARK   94  A    between atoms: _221  and  _224
REMARK   95  A    between atoms: _224  and  _225
REMARK   96  A    between atoms: _228  and  _230
REMARK   97  A    between atoms: _230  and  _231
REMARK   98  A    between atoms: _230  and  _233
REMARK   99  A    between atoms: _233  and  _234
REMARK  100  A    between atoms: _237  and  _239
REMARK  101  A    between atoms: _239  and  _240
REMARK  102  A    between atoms: _239  and  _242
REMARK  103  A    between atoms: _242  and  _243
REMARK  104  A    between atoms: _243  and  _244
REMARK  105  A    between atoms: _246  and  _248
REMARK  106  A    between atoms: _248  and  _249
REMARK  107  A    between atoms: _248  and  _251
REMARK  108  A    between atoms: _251  and  _252
REMARK  109  A    between atoms: _255  and  _257
REMARK  110  A    between atoms: _257  and  _258
REMARK  111  A    between atoms: _261  and  _263
REMARK  112  A    between atoms: _263  and  _264
REMARK  113  A    between atoms: _266  and  _268
REMARK  114  A    between atoms: _268  and  _269
REMARK  115  A    between atoms: _268  and  _271
REMARK  116  A    between atoms: _271  and  _272
REMARK  117  A    between atoms: _272  and  _273
REMARK  118  A    between atoms: _273  and  _274
REMARK  119  A    between atoms: _274  and  _275
REMARK  120  A    between atoms: _279  and  _281
REMARK  121  A    between atoms: _281  and  _282
REMARK  122  A    between atoms: _281  and  _284
REMARK  123  A    between atoms: _284  and  _285
REMARK  124  A    between atoms: _288  and  _290
REMARK  125  A    between atoms: _290  and  _291
REMARK  126  A    between atoms: _290  and  _293
REMARK  127  A    between atoms: _296  and  _298
REMARK  128  A    between atoms: _298  and  _299
REMARK  129  A    between atoms: _298  and  _301
REMARK  130  A    between atoms: _301  and  _302
REMARK  131  A    between atoms: _305  and  _307
REMARK  132  A    between atoms: _307  and  _308
REMARK  133  A    between atoms: _307  and  _310
REMARK  134  A    between atoms: _310  and  _311
REMARK  135  A    between atoms: _314  and  _316
REMARK  136  A    between atoms: _316  and  _317
REMARK  137  A    between atoms: _316  and  _319
REMARK  138  A    between atoms: _319  and  _320
REMARK  139  A    between atoms: _320  and  _321
REMARK  140  A    between atoms: _324  and  _326
REMARK  141  A    between atoms: _326  and  _327
REMARK  142  A    between atoms: _326  and  _329
REMARK  143  A    between atoms: _329  and  _330
REMARK  144  A    between atoms: _333  and  _335
REMARK  145  A    between atoms: _335  and  _336
REMARK  146  A    between atoms: _335  and  _338
REMARK  147  A    between atoms: _341  and  _343
REMARK  148  A    between atoms: _343  and  _344
REMARK  149  A    between atoms: _343  and  _346
REMARK  150  A    between atoms: _346  and  _347
REMARK  151  A    between atoms: _350  and  _352
REMARK  152  A    between atoms: _352  and  _353
REMARK  153  A    between atoms: _352  and  _355
REMARK  154  A    between atoms: _358  and  _360
REMARK  155  A    between atoms: _360  and  _361
REMARK  156  A    between atoms: _360  and  _363
REMARK  157  A    between atoms: _363  and  _364
REMARK  158  A    between atoms: _367  and  _369
REMARK  159  A    between atoms: _369  and  _370
REMARK  160  A    between atoms: _372  and  _374
REMARK  161  A    between atoms: _374  and  _375
REMARK  162  A    between atoms: _374  and  _377
REMARK  163  A    between atoms: _377  and  _378
REMARK  164  A    between atoms: _385  and  _386
REMARK  165  A    between atoms: _391  and  _393
REMARK  166  A    between atoms: _393  and  _394
REMARK  167  A    between atoms: _393  and  _396
REMARK  168  A    between atoms: _396  and  _397
REMARK  169  A    between atoms: _397  and  _398
REMARK  170  A    between atoms: _398  and  _399
REMARK  171  A    between atoms: _408  and  _410
REMARK  172  A    between atoms: _410  and  _411
REMARK  173  A    between atoms: _410  and  _413
REMARK  174  A    between atoms: _413  and  _414
REMARK  175  A    between atoms: _417  and  _419
REMARK  176  A    between atoms: _419  and  _420
REMARK  177  A    between atoms: _419  and  _422
REMARK  178  A    between atoms: _422  and  _423
REMARK  179  A    between atoms: _423  and  _424
REMARK  180  A    between atoms: _429  and  _431
REMARK  181  A    between atoms: _431  and  _432
REMARK  182  A    between atoms: _431  and  _434
REMARK  183  A    between atoms: _434  and  _435
REMARK  184  A    between atoms: _441  and  _443
REMARK  185  A    between atoms: _443  and  _444
REMARK  186  A    between atoms: _443  and  _446
REMARK  187  A    between atoms: _449  and  _451
REMARK  188  A    between atoms: _451  and  _452
REMARK  189  A    between atoms: _451  and  _454
REMARK  190  A    between atoms: _454  and  _455
REMARK  191  A    between atoms: _458  and  _460
REMARK  192  A    between atoms: _460  and  _461
REMARK  193  A    between atoms: _460  and  _463
REMARK  194  A    between atoms: _463  and  _464
REMARK  195  A    between atoms: _467  and  _469
REMARK  196  A    between atoms: _469  and  _470
REMARK  197  A    between atoms: _469  and  _472
REMARK  198  A    between atoms: _475  and  _477
REMARK  199  A    between atoms: _477  and  _478
REMARK  200  A    between atoms: _477  and  _480
REMARK  201  A    between atoms: _480  and  _481
REMARK  202  A    between atoms: _484  and  _486
REMARK  203  A    between atoms: _486  and  _487
REMARK  204  A    between atoms: _486  and  _489
REMARK  205  A    between atoms: _489  and  _490
REMARK  206  A    between atoms: _490  and  _491
REMARK  207  A    between atoms: _491  and  _492
REMARK  208  A    between atoms: _501  and  _503
REMARK  209  A    between atoms: _503  and  _504
REMARK  210  A    between atoms: _503  and  _506
REMARK  211  A    between atoms: _506  and  _507
REMARK  212  A    between atoms: _510  and  _512
REMARK  213  A    between atoms: _512  and  _513
REMARK  214  A    between atoms: _512  and  _515
REMARK  215  A    between atoms: _518  and  _520
REMARK  216  A    between atoms: _520  and  _521
REMARK  217  A    between atoms: _523  and  _525
REMARK  218  A    between atoms: _525  and  _526
REMARK  219  A    between atoms: _525  and  _528
REMARK  220  A    between atoms: _528  and  _529
REMARK  221  A    between atoms: _529  and  _530
REMARK  222  A    between atoms: _530  and  _531
REMARK  223  A    between atoms: _540  and  _542
REMARK  224  A    between atoms: _542  and  _543
REMARK  225  A    between atoms: _542  and  _545
REMARK  226  A    between atoms: _545  and  _546
REMARK  227  A    between atoms: _546  and  _547
REMARK  228  A    between atoms: _547  and  _548
REMARK  229  A    between atoms: _557  and  _559
REMARK  230  A    between atoms: _559  and  _560
REMARK  231  A    between atoms: _559  and  _562
REMARK  232  A    between atoms: _565  and  _567
REMARK  233  A    between atoms: _567  and  _568
REMARK  234  A    between atoms: _570  and  _572
REMARK  235  A    between atoms: _572  and  _573
REMARK  236  A    between atoms: _572  and  _575
REMARK  237  A    between atoms: _575  and  _576
REMARK  238  A    between atoms: _576  and  _577
REMARK  239  A    between atoms: _577  and  _578
REMARK  240  A    between atoms: _587  and  _589
REMARK  241  A    between atoms: _589  and  _590
REMARK  242  A    between atoms: _589  and  _592
REMARK  243  A    between atoms: _595  and  _597
REMARK  244  A    between atoms: _597  and  _598
REMARK  245  A    between atoms: _597  and  _600
REMARK  246  A    between atoms: _600  and  _601
REMARK  247  A    between atoms: _606  and  _607
REMARK  248  A    between atoms: _609  and  _611
REMARK  249  A    between atoms: _611  and  _612
REMARK  250  A    between atoms: _611  and  _614
REMARK  251  A    between atoms: _614  and  _615
REMARK  252  A    between atoms: _620  and  _622
REMARK  253  A    between atoms: _622  and  _623
REMARK  254  A    between atoms: _622  and  _625
REMARK  255  A    between atoms: _628  and  _630
REMARK  256  A    between atoms: _630  and  _631
REMARK  257  A    between atoms: _630  and  _633
REMARK  258  A    between atoms: _633  and  _634
REMARK  259  A    between atoms: _634  and  _635
REMARK  260  A    between atoms: _635  and  _636
REMARK  261  A    between atoms: _636  and  _637
REMARK  262  A    between atoms: _641  and  _643
REMARK  263  A    between atoms: _643  and  _644
REMARK  264  A    between atoms: _643  and  _646
REMARK  265  A    between atoms: _646  and  _647
REMARK  266  A    between atoms: _653  and  _655
REMARK  267  A    between atoms: _655  and  _656
REMARK  268  A    between atoms: _655  and  _658
REMARK  269  A    between atoms: _658  and  _659
REMARK  270  A    between atoms: _665  and  _666
REMARK  271  A    between atoms: _671  and  _673
REMARK  272  A    between atoms: _673  and  _674
REMARK  273  A    between atoms: _673  and  _676
REMARK  274  A    between atoms: _676  and  _677
REMARK  275  A    between atoms: _677  and  _678
REMARK  276  A    between atoms: _678  and  _679
REMARK  277  A    between atoms: _688  and  _690
REMARK  278  A    between atoms: _690  and  _691
REMARK  279  A    between atoms: _690  and  _693
REMARK  280  A    between atoms: _693  and  _694
REMARK  281  A    between atoms: _697  and  _699
REMARK  282  A    between atoms: _699  and  _700
REMARK  283  A    between atoms: _699  and  _702
REMARK  284  A    between atoms: _702  and  _703
REMARK  285  A    between atoms: _706  and  _708
REMARK  286  A    between atoms: _708  and  _709
REMARK  287  A    between atoms: _708  and  _711
REMARK  288  A    between atoms: _711  and  _712
REMARK  289  A    between atoms: _715  and  _717
REMARK  290  A    between atoms: _717  and  _718
REMARK  291  A    between atoms: _717  and  _720
REMARK  292  A    between atoms: _723  and  _725
REMARK  293  A    between atoms: _725  and  _726
REMARK  294  A    between atoms: _725  and  _728
REMARK  295  A    between atoms: _728  and  _729
REMARK  296  A    between atoms: _729  and  _730
REMARK  297  A    between atoms: _730  and  _731
REMARK  298  A    between atoms: _731  and  _732
REMARK  299  A    between atoms: _736  and  _738
REMARK  300  A    between atoms: _738  and  _739
REMARK  301  A    between atoms: _738  and  _741
REMARK  302  A    between atoms: _741  and  _742
REMARK  303  A    between atoms: _742  and  _743
REMARK  304  A    between atoms: _743  and  _744
REMARK  305  A    between atoms: _753  and  _755
REMARK  306  A    between atoms: _755  and  _756
REMARK  307  A    between atoms: _755  and  _758
REMARK  308  A    between atoms: _758  and  _759
REMARK  309  A    between atoms: _762  and  _764
REMARK  310  A    between atoms: _764  and  _765
REMARK  311  A    between atoms: _764  and  _767
REMARK  312  A    between atoms: _767  and  _768
REMARK  313  A    between atoms: _768  and  _769
REMARK  314  A    between atoms: _772  and  _774
REMARK  315  A    between atoms: _774  and  _775
REMARK  316  A    between atoms: _774  and  _777
REMARK  317  A    between atoms: _777  and  _778
REMARK  318  A    between atoms: _788  and  _790
REMARK  319  A    between atoms: _790  and  _791
REMARK  320  A    between atoms: _790  and  _793
REMARK  321  A    between atoms: _793  and  _794
REMARK  322  A    between atoms: _797  and  _799
REMARK  323  A    between atoms: _799  and  _800
REMARK  324  A    between atoms: _799  and  _802
REMARK  325  A    between atoms: _802  and  _803
REMARK  326  A    between atoms: _806  and  _808
REMARK  327  A    between atoms: _808  and  _809
REMARK  328  A    between atoms: _811  and  _813
REMARK  329  A    between atoms: _813  and  _814
REMARK  330  A    between atoms: _813  and  _816
REMARK  331  A    between atoms: _816  and  _817
REMARK  332  A    between atoms: _820  and  _822
REMARK  333  A    between atoms: _822  and  _823
REMARK  334  A    between atoms: _822  and  _825
REMARK  335  A    between atoms: _825  and  _826
REMARK  336  A    between atoms: _826  and  _827
REMARK  337  A    between atoms: _827  and  _828
REMARK  338  A    between atoms: _828  and  _829
REMARK  339  A    between atoms: _834  and  _835
REMARK  340  A    between atoms: _840  and  _842
REMARK  341  A    between atoms: _842  and  _843
REMARK  342  A    between atoms: _842  and  _845
REMARK  343  A    between atoms: _848  and  _850
REMARK  344  A    between atoms: _850  and  _851
REMARK  345  A    between atoms: _854  and  _856
REMARK  346  A    between atoms: _856  and  _857
REMARK  347  A    between atoms: _856  and  _859
REMARK  348  A    between atoms: _859  and  _860
REMARK  349  A    between atoms: _860  and  _861
REMARK  350  A    between atoms: _864  and  _866
REMARK  351  A    between atoms: _866  and  _867
REMARK  352  A    between atoms: _866  and  _869
REMARK  353  A    between atoms: _872  and  _874
REMARK  354  A    between atoms: _874  and  _875
REMARK  355  A    between atoms: _874  and  _877
REMARK  356  A    between atoms: _877  and  _878
REMARK  357  A    between atoms: _878  and  _879
REMARK  358  A    between atoms: _879  and  _880
REMARK                            x       y       z     vdW  Elec       q    Type
REMARK                         _______ _______ _______ _____ _____    ______ ____
ROOT
ATOM      1  CA  LYS A   9     -14.032  15.186 -35.506  0.00  0.00    +0.149 C 
ENDROOT
BRANCH   1   2
ATOM      2  C   LYS A   9     -13.936  15.649 -34.050  0.00  0.00    +0.241 C 
ATOM      3  N   GLY A  10     -15.072  16.024 -33.466  0.00  0.00    -0.295 N 
ATOM      4  H   GLY A  10     -15.959  15.975 -34.007  0.00  0.00    +0.150 HD
ATOM      5  O   LYS A   9     -12.851  15.665 -33.469  0.00  0.00    -0.273 OA
BRANCH   3   6
ATOM      6  CA  GLY A  10     -15.106  16.500 -32.093  0.00  0.00    +0.176 C 
BRANCH   6   7
ATOM      7  C   GLY A  10     -14.626  15.454 -31.103  0.00  0.00    +0.243 C 
ATOM      8  O   GLY A  10     -13.924  15.768 -30.143  0.00  0.00    -0.273 OA
ATOM      9  N   THR A  11     -15.004  14.205 -31.348  0.00  0.00    -0.295 N 
ATOM     10  H   THR A  11     -15.605  14.015 -32.176  0.00  0.00    +0.150 HD
BRANCH   9  11
ATOM     11  CA  THR A  11     -14.606  13.090 -30.497  0.00  0.00    +0.176 C 
BRANCH  11  12
ATOM     12  C   THR A  11     -13.091  12.930 -30.465  0.00  0.00    +0.243 C 
ATOM     13  O   THR A  11     -12.492  12.793 -29.399  0.00  0.00    -0.273 OA
ATOM     14  N   GLN A  12     -12.475  12.962 -31.640  0.00  0.00    -0.297 N 
ATOM     15  H   GLN A  12     -13.032  13.134 -32.502  0.00  0.00    +0.150 HD
BRANCH  14  16
ATOM     16  CA  GLN A  12     -11.038  12.762 -31.749  0.00  0.00    +0.149 C 
BRANCH  16  17
ATOM     17  C   GLN A  12     -10.256  14.013 -31.362  0.00  0.00    +0.241 C 
ATOM     18  O   GLN A  12      -9.083  13.926 -30.997  0.00  0.00    -0.273 OA
ATOM     19  N   ALA A  13     -10.908  15.170 -31.437  0.00  0.00    -0.297 N 
ATOM     20  H   ALA A  13     -11.885  15.180 -31.793  0.00  0.00    +0.150 HD
BRANCH  19  21
ATOM     21  CA  ALA A  13     -10.283  16.426 -31.031  0.00  0.00    +0.149 C 
ATOM     22  CB  ALA A  13     -11.222  17.600 -31.295  0.00  0.00    +0.031 C 
BRANCH  21  23
ATOM     23  C   ALA A  13      -9.872  16.395 -29.558  0.00  0.00    +0.241 C 
ATOM     24  N   GLN A  14     -10.671  15.726 -28.729  0.00  0.00    -0.297 N 
ATOM     25  H   GLN A  14     -11.509  15.245 -29.114  0.00  0.00    +0.150 HD
ATOM     26  O   ALA A  13      -8.846  16.963 -29.185  0.00  0.00    -0.273 OA
BRANCH  24  27
ATOM     27  CA  GLN A  14     -10.406  15.647 -27.294  0.00  0.00    +0.149 C 
BRANCH  27  28
ATOM     28  C   GLN A  14      -9.043  15.024 -27.002  0.00  0.00    +0.241 C 
ATOM     29  O   GLN A  14      -8.299  15.518 -26.156  0.00  0.00    -0.273 OA
ATOM     30  N   PHE A  15      -8.722  13.944 -27.708  0.00  0.00    -0.298 N 
ATOM     31  H   PHE A  15      -9.384  13.597 -28.431  0.00  0.00    +0.150 HD
BRANCH  30  32
ATOM     32  CA  PHE A  15      -7.465  13.233 -27.495  0.00  0.00    +0.141 C 
BRANCH  32  33
ATOM     33  C   PHE A  15      -6.276  14.021 -28.030  0.00  0.00    +0.227 C 
ATOM     34  O   PHE A  15      -5.219  14.067 -27.402  0.00  0.00    -0.286 OA
ENDBRANCH  32  33
BRANCH  32  35
ATOM     35  CB  PHE A  15      -7.506  11.850 -28.153  0.00  0.00    +0.054 C 
BRANCH  35  36
ATOM     36  CG  PHE A  15      -8.718  11.041 -27.788  0.00  0.00    -0.020 A 
ATOM     37  CD2 PHE A  15      -9.006  10.756 -26.462  0.00  0.00    -0.004 A 
ATOM     38  CE2 PHE A  15     -10.121  10.010 -26.123  0.00  0.00    -0.000 A 
ATOM     39  CZ  PHE A  15     -10.959   9.535 -27.114  0.00  0.00    -0.000 A 
ATOM     40  CE1 PHE A  15     -10.681   9.808 -28.439  0.00  0.00    -0.000 A 
ATOM     41  CD1 PHE A  15      -9.566  10.557 -28.771  0.00  0.00    -0.004 A 
ENDBRANCH  35  36
ENDBRANCH  32  35
ENDBRANCH  30  32
ENDBRANCH  27  28
BRANCH  27  42
ATOM     42  CB  GLN A  14     -11.500  14.843 -26.584  0.00  0.00    +0.039 C 
BRANCH  42  43
ATOM     43  CG  GLN A  14     -12.911  15.329 -26.858  0.00  0.00    +0.087 C 
BRANCH  43  44
ATOM     44  CD  GLN A  14     -13.109  16.786 -26.496  0.00  0.00    +0.219 C 
ATOM     45  OE1 GLN A  14     -12.659  17.245 -25.446  0.00  0.00    -0.275 OA
ATOM     46  NE2 GLN A  14     -13.787  17.525 -27.369  0.00  0.00    -0.329 N 
ATOM     47 HE21 GLN A  14     -13.955  18.533 -27.177  0.00  0.00    +0.145 HD
ATOM     48 HE22 GLN A  14     -14.149  17.095 -28.244  0.00  0.00    +0.145 HD
ENDBRANCH  43  44
ENDBRANCH  42  43
ENDBRANCH  27  42
ENDBRANCH  24  27
ENDBRANCH  21  23
ENDBRANCH  19  21
ENDBRANCH  16  17
BRANCH  16  49
ATOM     49  CB  GLN A  12     -10.675  12.321 -33.168  0.00  0.00    +0.039 C 
BRANCH  49  50
ATOM     50  CG  GLN A  12     -11.247  10.958 -33.538  0.00  0.00    +0.087 C 
BRANCH  50  51
ATOM     51  CD  GLN A  12     -10.757   9.853 -32.617  0.00  0.00    +0.219 C 
ATOM     52  OE1 GLN A  12      -9.637   9.905 -32.113  0.00  0.00    -0.275 OA
ATOM     53  NE2 GLN A  12     -11.601   8.852 -32.386  0.00  0.00    -0.329 N 
ATOM     54 HE21 GLN A  12     -11.323   8.072 -31.757  0.00  0.00    +0.145 HD
ATOM     55 HE22 GLN A  12     -12.539   8.849 -32.834  0.00  0.00    +0.145 HD
ENDBRANCH  50  51
ENDBRANCH  49  50
ENDBRANCH  16  49
ENDBRANCH  14  16
ENDBRANCH  11  12
BRANCH  11  56
ATOM     56  CB  THR A  11     -15.246  11.773 -30.974  0.00  0.00    +0.137 C 
ATOM     57  CG2 THR A  11     -14.846  10.618 -30.066  0.00  0.00    +0.034 C 
BRANCH  56  58
ATOM     58  OG1 THR A  11     -16.674  11.907 -30.979  0.00  0.00    -0.382 OA
ATOM     59  HG1 THR A  11     -16.933  12.640 -31.591  0.00  0.00    +0.210 HD
ENDBRANCH  56  58
ENDBRANCH  11  56
ENDBRANCH   9  11
ENDBRANCH   6   7
ENDBRANCH   3   6
ENDBRANCH   1   2
BRANCH   1  62
ATOM     60  C   GLY A   8     -15.002  12.974 -35.131  0.00  0.00    +0.243 C 
ATOM     61  O   GLY A   8     -14.115  12.652 -34.338  0.00  0.00    -0.273 OA
ATOM     62  N   LYS A   9     -15.064  14.172 -35.704  0.00  0.00    -0.297 N 
ATOM     63  H   LYS A   9     -15.876  14.395 -36.315  0.00  0.00    +0.150 HD
BRANCH  60  64
ATOM     64  CA  GLY A   8     -16.106  11.997 -35.490  0.00  0.00    +0.176 C 
BRANCH  64  66
ATOM     65  C   ALA A   7     -16.680  11.581 -37.816  0.00  0.00    +0.241 C 
ATOM     66  N   GLY A   8     -16.823  12.313 -36.713  0.00  0.00    -0.295 N 
ATOM     67  H   GLY A   8     -17.464  13.132 -36.728  0.00  0.00    +0.150 HD
ATOM     68  O   ALA A   7     -15.867  10.661 -37.903  0.00  0.00    -0.273 OA
BRANCH  65  69
ATOM     69  CA  ALA A   7     -17.582  11.935 -39.002  0.00  0.00    +0.149 C 
ATOM     70  CB  ALA A   7     -16.784  12.660 -40.073  0.00  0.00    +0.031 C 
BRANCH  69  73
ATOM     71  C   GLY A   6     -19.729  12.213 -37.890  0.00  0.00    +0.243 C 
ATOM     72  O   GLY A   6     -19.731  11.045 -37.509  0.00  0.00    -0.273 OA
ATOM     73  N   ALA A   7     -18.732  12.737 -38.597  0.00  0.00    -0.297 N 
ATOM     74  H   ALA A   7     -18.773  13.740 -38.867  0.00  0.00    +0.150 HD
BRANCH  71  75
ATOM     75  CA  GLY A   6     -20.889  13.131 -37.553  0.00  0.00    +0.176 C 
BRANCH  75  77
ATOM     76  C   PRO A   5     -21.231  14.499 -39.534  0.00  0.00    +0.241 C 
ATOM     77  N   GLY A   6     -20.882  14.403 -38.255  0.00  0.00    -0.295 N 
ATOM     78  H   GLY A   6     -20.596  15.262 -37.743  0.00  0.00    +0.150 HD
ATOM     79  O   PRO A   5     -21.496  13.525 -40.237  0.00  0.00    -0.273 OA
BRANCH  76  83
ATOM     80  C   ALA A   4     -19.388  15.486 -41.648  0.00  0.00    +0.244 C 
ATOM     81  O   ALA A   4     -18.707  15.034 -40.732  0.00  0.00    -0.273 OA
ATOM     82  N   PRO A   5     -20.626  15.979 -41.456  0.00  0.00    -0.272 N 
ATOM     83  CA  PRO A   5     -21.270  15.905 -40.138  0.00  0.00    +0.152 C 
ATOM     84  CB  PRO A   5     -22.713  16.325 -40.434  0.00  0.00    +0.031 C 
ATOM     85  CG  PRO A   5     -22.590  17.254 -41.589  0.00  0.00    +0.024 C 
ATOM     86  CD  PRO A   5     -21.447  16.730 -42.426  0.00  0.00    +0.094 C 
BRANCH  80  87
ATOM     87  CA  ALA A   4     -18.828  15.519 -43.072  0.00  0.00    +0.149 C 
ATOM     88  CB  ALA A   4     -19.425  14.387 -43.912  0.00  0.00    +0.031 C 
BRANCH  87  91
ATOM     89  C   GLY A   3     -16.587  16.310 -42.474  0.00  0.00    +0.243 C 
ATOM     90  O   GLY A   3     -17.014  17.313 -41.901  0.00  0.00    -0.273 OA
ATOM     91  N   ALA A   4     -17.374  15.416 -43.064  0.00  0.00    -0.297 N 
ATOM     92  H   ALA A   4     -16.932  14.605 -43.542  0.00  0.00    +0.150 HD
BRANCH  89  93
ATOM     93  CA  GLY A   3     -15.100  16.015 -42.546  0.00  0.00    +0.176 C 
BRANCH  93  96
ATOM     94  C   LEU A   2     -12.916  16.974 -42.173  0.00  0.00    +0.241 C 
ATOM     95  O   LEU A   2     -12.406  15.859 -42.114  0.00  0.00    -0.273 OA
ATOM     96  N   GLY A   3     -14.217  17.156 -42.377  0.00  0.00    -0.295 N 
ATOM     97  H   GLY A   3     -14.605  18.120 -42.416  0.00  0.00    +0.150 HD
BRANCH  94  98
ATOM     98  CA  LEU A   2     -12.054  18.220 -42.007  0.00  0.00    +0.149 C 
BRANCH  98 101
ATOM     99  C   LEU A   1     -11.111  18.902 -39.865  0.00  0.00    +0.238 C 
ATOM    100  O   LEU A   1     -11.891  19.854 -39.755  0.00  0.00    -0.274 OA
ATOM    101  N   LEU A   2     -11.141  18.054 -40.884  0.00  0.00    -0.297 N 
ATOM    102  H   LEU A   2     -10.490  17.243 -40.881  0.00  0.00    +0.150 HD
BRANCH  99 103
ATOM    103  CA  LEU A   1     -10.031  18.645 -38.818  0.00  0.00    +0.145 C 
BRANCH 103 104
ATOM    104  N   LEU A   1      -9.198  19.835 -38.700  0.00  0.00    -0.238 NA
ATOM    105  H   LEU A   1      -9.506  20.611 -38.080  0.00  0.00    +0.142 HD
ENDBRANCH 103 104
BRANCH 103 106
ATOM    106  CB  LEU A   1     -10.662  18.269 -37.475  0.00  0.00    +0.026 C 
BRANCH 106 107
ATOM    107  CG  LEU A   1      -9.706  18.006 -36.310  0.00  0.00    +0.002 C 
ATOM    108  CD2 LEU A   1     -10.453  17.438 -35.104  0.00  0.00    +0.000 C 
ATOM    109  CD1 LEU A   1      -8.566  17.088 -36.727  0.00  0.00    +0.000 C 
ENDBRANCH 106 107
ENDBRANCH 103 106
ENDBRANCH  99 103
ENDBRANCH  98 101
BRANCH  98 110
ATOM    110  CB  LEU A   2     -11.261  18.501 -43.285  0.00  0.00    +0.029 C 
BRANCH 110 111
ATOM    111  CG  LEU A   2     -12.003  18.590 -44.617  0.00  0.00    +0.002 C 
ATOM    112  CD2 LEU A   2     -12.937  19.793 -44.630  0.00  0.00    +0.000 C 
ATOM    113  CD1 LEU A   2     -11.005  18.660 -45.768  0.00  0.00    +0.000 C 
ENDBRANCH 110 111
ENDBRANCH  98 110
ENDBRANCH  94  98
ENDBRANCH  93  96
ENDBRANCH  89  93
ENDBRANCH  87  91
ENDBRANCH  80  87
ENDBRANCH  76  83
ENDBRANCH  75  77
ENDBRANCH  71  75
ENDBRANCH  69  73
ENDBRANCH  65  69
ENDBRANCH  64  66
ENDBRANCH  60  64
ENDBRANCH   1  62
BRANCH   1 114
ATOM    114  CB  LYS A   9     -14.292  16.386 -36.425  0.00  0.00    +0.029 C 
BRANCH 114 115
ATOM    115  CG  LYS A   9     -14.296  16.039 -37.912  0.00  0.00    +0.000 C 
BRANCH 115 116
ATOM    116  CD  LYS A   9     -14.389  17.284 -38.785  0.00  0.00    -0.024 C 
BRANCH 116 117
ATOM    117  CE  LYS A   9     -15.734  17.994 -38.632  0.00  0.00    -0.086 C 
BRANCH 117 118
ATOM    118  NZ  LYS A   9     -16.891  17.098 -38.923  0.00  0.00    +0.380 N 
ATOM    119  HZ1 LYS A   9     -16.878  16.292 -38.266  0.00  0.00    -0.089 HD
ATOM    120  HZ2 LYS A   9     -17.777  17.629 -38.805  0.00  0.00    -0.089 HD
ATOM    121  HZ3 LYS A   9     -16.822  16.751 -39.901  0.00  0.00    -0.089 HD
ENDBRANCH 117 118
ENDBRANCH 116 117
ENDBRANCH 115 116
ENDBRANCH 114 115
ENDBRANCH   1 114
TORSDOF 48
REMARK  Name = ../refined-set-2016/4x8o/4x8o_pocket.pdb
REMARK  358 active torsions:
REMARK  status: ('A' for Active; 'I' for Inactive)
REMARK    1  A    between atoms: _1  and  _3
REMARK    2  A    between atoms: _3  and  _4
REMARK    3  A    between atoms: _3  and  _6
REMARK    4  A    between atoms: _6  and  _7
REMARK    5  A    between atoms: _10  and  _12
REMARK    6  A    between atoms: _12  and  _13
REMARK    7  A    between atoms: _12  and  _15
REMARK    8  A    between atoms: _15  and  _16
REMARK    9  A    between atoms: _19  and  _21
REMARK   10  A    between atoms: _21  and  _22
REMARK   11  A    between atoms: _24  and  _26
REMARK   12  A    between atoms: _26  and  _27
REMARK   13  A    between atoms: _31  and  _32
REMARK   14  A    between atoms: _37  and  _39
REMARK   15  A    between atoms: _39  and  _40
REMARK   16  A    between atoms: _42  and  _44
REMARK   17  A    between atoms: _44  and  _45
REMARK   18  A    between atoms: _48  and  _50
REMARK   19  A    between atoms: _50  and  _51
REMARK   20  A    between atoms: _53  and  _55
REMARK   21  A    between atoms: _55  and  _56
REMARK   22  A    between atoms: _55  and  _58
REMARK   23  A    between atoms: _58  and  _59
REMARK   24  A    between atoms: _59  and  _60
REMARK   25  A    between atoms: _60  and  _61
REMARK   26  A    between atoms: _61  and  _62
REMARK   27  A    between atoms: _66  and  _68
REMARK   28  A    between atoms: _68  and  _69
REMARK   29  A    between atoms: _71  and  _73
REMARK   30  A    between atoms: _73  and  _74
REMARK   31  A    between atoms: _73  and  _76
REMARK   32  A    between atoms: _76  and  _77
REMARK   33  A    between atoms: _80  and  _82
REMARK   34  A    between atoms: _82  and  _83
REMARK   35  A    between atoms: _82  and  _85
REMARK   36  A    between atoms: _85  and  _86
REMARK   37  A    between atoms: _86  and  _87
REMARK   38  A    between atoms: _92  and  _94
REMARK   39  A    between atoms: _94  and  _95
REMARK   40  A    between atoms: _98  and  _100
REMARK   41  A    between atoms: _100  and  _101
REMARK   42  A    between atoms: _100  and  _103
REMARK   43  A    between atoms: _103  and  _104
REMARK   44  A    between atoms: _104  and  _105
REMARK   45  A    between atoms: _110  and  _112
REMARK   46  A    between atoms: _112  and  _113
REMARK   47  A    between atoms: _112  and  _115
REMARK   48  A    between atoms: _115  and  _116
REMARK   49  A    between atoms: _122  and  _124
REMARK   50  A    between atoms: _124  and  _125
REMARK   51  A    between atoms: _124  and  _127
REMARK   52  A    between atoms: _127  and  _128
REMARK   53  A    between atoms: _128  and  _129
REMARK   54  A    between atoms: _134  and  _136
REMARK   55  A    between atoms: _136  and  _137
REMARK   56  A    between atoms: _136  and  _139
REMARK   57  A    between atoms: _139  and  _140
REMARK   58  A    between atoms: _142  and  _144
REMARK   59  A    between atoms: _144  and  _145
REMARK   60  A    between atoms: _144  and  _147
REMARK   61  A    between atoms: _147  and  _148
REMARK   62  A    between atoms: _151  and  _153
REMARK   63  A    between atoms: _153  and  _154
REMARK   64  A    between atoms: _156  and  _158
REMARK   65  A    between atoms: _158  and  _159
REMARK   66  A    between atoms: _158  and  _161
REMARK   67  A    between atoms: _161  and  _162
REMARK   68  A    between atoms: _165  and  _167
REMARK   69  A    between atoms: _167  and  _168
REMARK   70  A    between atoms: _167  and  _170
REMARK   71  A    between atoms: _170  and  _171
REMARK   72  A    between atoms: _171  and  _172
REMARK   73  A    between atoms: _174  and  _176
REMARK   74  A    between atoms: _176  and  _177
REMARK   75  A    between atoms: _176  and  _179
REMARK   76  A    between atoms: _179  and  _180
REMARK   77  A    between atoms: _183  and  _185
REMARK   78  A    between atoms: _185  and  _186
REMARK   79  A    between atoms: _185  and  _188
REMARK   80  A    between atoms: _188  and  _189
REMARK   81  A    between atoms: _189  and  _190
REMARK   82  A    between atoms: _190  and  _191
REMARK   83  A    between atoms: _200  and  _202
REMARK   84  A    between atoms: _202  and  _203
REMARK   85  A    between atoms: _206  and  _208
REMARK   86  A    between atoms: _208  and  _209
REMARK   87  A    between atoms: _208  and  _211
REMARK   88  A    between atoms: _211  and  _212
REMARK   89  A    between atoms: _212  and  _213
REMARK   90  A    between atoms: _213  and  _214
REMARK   91  A    between atoms: _214  and  _215
REMARK   92  A    between atoms: _219  and  _221
REMARK   93  A    between atoms: _221  and  _222
REMARK   94  A    between atoms: _221  and  _224
REMARK   95  A    between atoms: _224  and  _225
REMARK   96  A    between atoms: _228  and  _230
REMARK   97  A    between atoms: _230  and  _231
REMARK   98  A    between atoms: _230  and  _233
REMARK   99  A    between atoms: _233  and  _234
REMARK  100  A    between atoms: _237  and  _239
REMARK  101  A    between atoms: _239  and  _240
REMARK  102  A    between atoms: _239  and  _242
REMARK  103  A    between atoms: _242  and  _243
REMARK  104  A    between atoms: _243  and  _244
REMARK  105  A    between atoms: _246  and  _248
REMARK  106  A    between atoms: _248  and  _249
REMARK  107  A    between atoms: _248  and  _251
REMARK  108  A    between atoms: _251  and  _252
REMARK  109  A    between atoms: _255  and  _257
REMARK  110  A    between atoms: _257  and  _258
REMARK  111  A    between atoms: _261  and  _263
REMARK  112  A    between atoms: _263  and  _264
REMARK  113  A    between atoms: _266  and  _268
REMARK  114  A    between atoms: _268  and  _269
REMARK  115  A    between atoms: _268  and  _271
REMARK  116  A    between atoms: _271  and  _272
REMARK  117  A    between atoms: _272  and  _273
REMARK  118  A    between atoms: _273  and  _274
REMARK  119  A    between atoms: _274  and  _275
REMARK  120  A    between atoms: _279  and  _281
REMARK  121  A    between atoms: _281  and  _282
REMARK  122  A    between atoms: _281  and  _284
REMARK  123  A    between atoms: _284  and  _285
REMARK  124  A    between atoms: _288  and  _290
REMARK  125  A    between atoms: _290  and  _291
REMARK  126  A    between atoms: _290  and  _293
REMARK  127  A    between atoms: _296  and  _298
REMARK  128  A    between atoms: _298  and  _299
REMARK  129  A    between atoms: _298  and  _301
REMARK  130  A    between atoms: _301  and  _302
REMARK  131  A    between atoms: _305  and  _307
REMARK  132  A    between atoms: _307  and  _308
REMARK  133  A    between atoms: _307  and  _310
REMARK  134  A    between atoms: _310  and  _311
REMARK  135  A    between atoms: _314  and  _316
REMARK  136  A    between atoms: _316  and  _317
REMARK  137  A    between atoms: _316  and  _319
REMARK  138  A    between atoms: _319  and  _320
REMARK  139  A    between atoms: _320  and  _321
REMARK  140  A    between atoms: _324  and  _326
REMARK  141  A    between atoms: _326  and  _327
REMARK  142  A    between atoms: _326  and  _329
REMARK  143  A    between atoms: _329  and  _330
REMARK  144  A    between atoms: _333  and  _335
REMARK  145  A    between atoms: _335  and  _336
REMARK  146  A    between atoms: _335  and  _338
REMARK  147  A    between atoms: _341  and  _343
REMARK  148  A    between atoms: _343  and  _344
REMARK  149  A    between atoms: _343  and  _346
REMARK  150  A    between atoms: _346  and  _347
REMARK  151  A    between atoms: _350  and  _352
REMARK  152  A    between atoms: _352  and  _353
REMARK  153  A    between atoms: _352  and  _355
REMARK  154  A    between atoms: _358  and  _360
REMARK  155  A    between atoms: _360  and  _361
REMARK  156  A    between atoms: _360  and  _363
REMARK  157  A    between atoms: _363  and  _364
REMARK  158  A    between atoms: _367  and  _369
REMARK  159  A    between atoms: _369  and  _370
REMARK  160  A    between atoms: _372  and  _374
REMARK  161  A    between atoms: _374  and  _375
REMARK  162  A    between atoms: _374  and  _377
REMARK  163  A    between atoms: _377  and  _378
REMARK  164  A    between atoms: _385  and  _386
REMARK  165  A    between atoms: _391  and  _393
REMARK  166  A    between atoms: _393  and  _394
REMARK  167  A    between atoms: _393  and  _396
REMARK  168  A    between atoms: _396  and  _397
REMARK  169  A    between atoms: _397  and  _398
REMARK  170  A    between atoms: _398  and  _399
REMARK  171  A    between atoms: _408  and  _410
REMARK  172  A    between atoms: _410  and  _411
REMARK  173  A    between atoms: _410  and  _413
REMARK  174  A    between atoms: _413  and  _414
REMARK  175  A    between atoms: _417  and  _419
REMARK  176  A    between atoms: _419  and  _420
REMARK  177  A    between atoms: _419  and  _422
REMARK  178  A    between atoms: _422  and  _423
REMARK  179  A    between atoms: _423  and  _424
REMARK  180  A    between atoms: _429  and  _431
REMARK  181  A    between atoms: _431  and  _432
REMARK  182  A    between atoms: _431  and  _434
REMARK  183  A    between atoms: _434  and  _435
REMARK  184  A    between atoms: _441  and  _443
REMARK  185  A    between atoms: _443  and  _444
REMARK  186  A    between atoms: _443  and  _446
REMARK  187  A    between atoms: _449  and  _451
REMARK  188  A    between atoms: _451  and  _452
REMARK  189  A    between atoms: _451  and  _454
REMARK  190  A    between atoms: _454  and  _455
REMARK  191  A    between atoms: _458  and  _460
REMARK  192  A    between atoms: _460  and  _461
REMARK  193  A    between atoms: _460  and  _463
REMARK  194  A    between atoms: _463  and  _464
REMARK  195  A    between atoms: _467  and  _469
REMARK  196  A    between atoms: _469  and  _470
REMARK  197  A    between atoms: _469  and  _472
REMARK  198  A    between atoms: _475  and  _477
REMARK  199  A    between atoms: _477  and  _478
REMARK  200  A    between atoms: _477  and  _480
REMARK  201  A    between atoms: _480  and  _481
REMARK  202  A    between atoms: _484  and  _486
REMARK  203  A    between atoms: _486  and  _487
REMARK  204  A    between atoms: _486  and  _489
REMARK  205  A    between atoms: _489  and  _490
REMARK  206  A    between atoms: _490  and  _491
REMARK  207  A    between atoms: _491  and  _492
REMARK  208  A    between atoms: _501  and  _503
REMARK  209  A    between atoms: _503  and  _504
REMARK  210  A    between atoms: _503  and  _506
REMARK  211  A    between atoms: _506  and  _507
REMARK  212  A    between atoms: _510  and  _512
REMARK  213  A    between atoms: _512  and  _513
REMARK  214  A    between atoms: _512  and  _515
REMARK  215  A    between atoms: _518  and  _520
REMARK  216  A    between atoms: _520  and  _521
REMARK  217  A    between atoms: _523  and  _525
REMARK  218  A    between atoms: _525  and  _526
REMARK  219  A    between atoms: _525  and  _528
REMARK  220  A    between atoms: _528  and  _529
REMARK  221  A    between atoms: _529  and  _530
REMARK  222  A    between atoms: _530  and  _531
REMARK  223  A    between atoms: _540  and  _542
REMARK  224  A    between atoms: _542  and  _543
REMARK  225  A    between atoms: _542  and  _545
REMARK  226  A    between atoms: _545  and  _546
REMARK  227  A    between atoms: _546  and  _547
REMARK  228  A    between atoms: _547  and  _548
REMARK  229  A    between atoms: _557  and  _559
REMARK  230  A    between atoms: _559  and  _560
REMARK  231  A    between atoms: _559  and  _562
REMARK  232  A    between atoms: _565  and  _567
REMARK  233  A    between atoms: _567  and  _568
REMARK  234  A    between atoms: _570  and  _572
REMARK  235  A    between atoms: _572  and  _573
REMARK  236  A    between atoms: _572  and  _575
REMARK  237  A    between atoms: _575  and  _576
REMARK  238  A    between atoms: _576  and  _577
REMARK  239  A    between atoms: _577  and  _578
REMARK  240  A    between atoms: _587  and  _589
REMARK  241  A    between atoms: _589  and  _590
REMARK  242  A    between atoms: _589  and  _592
REMARK  243  A    between atoms: _595  and  _597
REMARK  244  A    between atoms: _597  and  _598
REMARK  245  A    between atoms: _597  and  _600
REMARK  246  A    between atoms: _600  and  _601
REMARK  247  A    between atoms: _606  and  _607
REMARK  248  A    between atoms: _609  and  _611
REMARK  249  A    between atoms: _611  and  _612
REMARK  250  A    between atoms: _611  and  _614
REMARK  251  A    between atoms: _614  and  _615
REMARK  252  A    between atoms: _620  and  _622
REMARK  253  A    between atoms: _622  and  _623
REMARK  254  A    between atoms: _622  and  _625
REMARK  255  A    between atoms: _628  and  _630
REMARK  256  A    between atoms: _630  and  _631
REMARK  257  A    between atoms: _630  and  _633
REMARK  258  A    between atoms: _633  and  _634
REMARK  259  A    between atoms: _634  and  _635
REMARK  260  A    between atoms: _635  and  _636
REMARK  261  A    between atoms: _636  and  _637
REMARK  262  A    between atoms: _641  and  _643
REMARK  263  A    between atoms: _643  and  _644
REMARK  264  A    between atoms: _643  and  _646
REMARK  265  A    between atoms: _646  and  _647
REMARK  266  A    between atoms: _653  and  _655
REMARK  267  A    between atoms: _655  and  _656
REMARK  268  A    between atoms: _655  and  _658
REMARK  269  A    between atoms: _658  and  _659
REMARK  270  A    between atoms: _665  and  _666
REMARK  271  A    between atoms: _671  and  _673
REMARK  272  A    between atoms: _673  and  _674
REMARK  273  A    between atoms: _673  and  _676
REMARK  274  A    between atoms: _676  and  _677
REMARK  275  A    between atoms: _677  and  _678
REMARK  276  A    between atoms: _678  and  _679
REMARK  277  A    between atoms: _688  and  _690
REMARK  278  A    between atoms: _690  and  _691
REMARK  279  A    between atoms: _690  and  _693
REMARK  280  A    between atoms: _693  and  _694
REMARK  281  A    between atoms: _697  and  _699
REMARK  282  A    between atoms: _699  and  _700
REMARK  283  A    between atoms: _699  and  _702
REMARK  284  A    between atoms: _702  and  _703
REMARK  285  A    between atoms: _706  and  _708
REMARK  286  A    between atoms: _708  and  _709
REMARK  287  A    between atoms: _708  and  _711
REMARK  288  A    between atoms: _711  and  _712
REMARK  289  A    between atoms: _715  and  _717
REMARK  290  A    between atoms: _717  and  _718
REMARK  291  A    between atoms: _717  and  _720
REMARK  292  A    between atoms: _723  and  _725
REMARK  293  A    between atoms: _725  and  _726
REMARK  294  A    between atoms: _725  and  _728
REMARK  295  A    between atoms: _728  and  _729
REMARK  296  A    between atoms: _729  and  _730
REMARK  297  A    between atoms: _730  and  _731
REMARK  298  A    between atoms: _731  and  _732
REMARK  299  A    between atoms: _736  and  _738
REMARK  300  A    between atoms: _738  and  _739
REMARK  301  A    between atoms: _738  and  _741
REMARK  302  A    between atoms: _741  and  _742
REMARK  303  A    between atoms: _742  and  _743
REMARK  304  A    between atoms: _743  and  _744
REMARK  305  A    between atoms: _753  and  _755
REMARK  306  A    between atoms: _755  and  _756
REMARK  307  A    between atoms: _755  and  _758
REMARK  308  A    between atoms: _758  and  _759
REMARK  309  A    between atoms: _762  and  _764
REMARK  310  A    between atoms: _764  and  _765
REMARK  311  A    between atoms: _764  and  _767
REMARK  312  A    between atoms: _767  and  _768
REMARK  313  A    between atoms: _768  and  _769
REMARK  314  A    between atoms: _772  and  _774
REMARK  315  A    between atoms: _774  and  _775
REMARK  316  A    between atoms: _774  and  _777
REMARK  317  A    between atoms: _777  and  _778
REMARK  318  A    between atoms: _788  and  _790
REMARK  319  A    between atoms: _790  and  _791
REMARK  320  A    between atoms: _790  and  _793
REMARK  321  A    between atoms: _793  and  _794
REMARK  322  A    between atoms: _797  and  _799
REMARK  323  A    between atoms: _799  and  _800
REMARK  324  A    between atoms: _799  and  _802
REMARK  325  A    between atoms: _802  and  _803
REMARK  326  A    between atoms: _806  and  _808
REMARK  327  A    between atoms: _808  and  _809
REMARK  328  A    between atoms: _811  and  _813
REMARK  329  A    between atoms: _813  and  _814
REMARK  330  A    between atoms: _813  and  _816
REMARK  331  A    between atoms: _816  and  _817
REMARK  332  A    between atoms: _820  and  _822
REMARK  333  A    between atoms: _822  and  _823
REMARK  334  A    between atoms: _822  and  _825
REMARK  335  A    between atoms: _825  and  _826
REMARK  336  A    between atoms: _826  and  _827
REMARK  337  A    between atoms: _827  and  _828
REMARK  338  A    between atoms: _828  and  _829
REMARK  339  A    between atoms: _834  and  _835
REMARK  340  A    between atoms: _840  and  _842
REMARK  341  A    between atoms: _842  and  _843
REMARK  342  A    between atoms: _842  and  _845
REMARK  343  A    between atoms: _848  and  _850
REMARK  344  A    between atoms: _850  and  _851
REMARK  345  A    between atoms: _854  and  _856
REMARK  346  A    between atoms: _856  and  _857
REMARK  347  A    between atoms: _856  and  _859
REMARK  348  A    between atoms: _859  and  _860
REMARK  349  A    between atoms: _860  and  _861
REMARK  350  A    between atoms: _864  and  _866
REMARK  351  A    between atoms: _866  and  _867
REMARK  352  A    between atoms: _866  and  _869
REMARK  353  A    between atoms: _872  and  _874
REMARK  354  A    between atoms: _874  and  _875
REMARK  355  A    between atoms: _874  and  _877
REMARK  356  A    between atoms: _877  and  _878
REMARK  357  A    between atoms: _878  and  _879
REMARK  358  A    between atoms: _879  and  _880
REMARK                            x       y       z     vdW  Elec       q    Type
REMARK                         _______ _______ _______ _____ _____    ______ ____
ROOT
ATOM      1  CB  GLN A   1     -10.678  21.612 -29.090  0.00  0.00    +0.035 C 
ENDROOT
BRANCH   1   2
ATOM      2  CA  GLN A   1      -9.728  22.735 -29.516  0.00  0.00    +0.134 C 
BRANCH   2   3
ATOM      3  N   GLN A   1      -8.781  23.038 -28.454  0.00  0.00    -0.239 NA
ATOM      4  H   GLN A   1      -9.025  22.786 -27.475  0.00  0.00    +0.142 HD
ENDBRANCH   2   3
BRANCH   2   5
ATOM      5  C   GLN A   1     -10.519  23.984 -29.877  0.00  0.00    +0.224 C 
ATOM      6  O   GLN A   1     -11.151  24.592 -29.015  0.00  0.00    -0.287 OA
ENDBRANCH   2   5
ENDBRANCH   1   2
BRANCH   1   7
ATOM      7  CG  GLN A   1     -11.758  21.291 -30.114  0.00  0.00    +0.087 C 
BRANCH   7   8
ATOM      8  CD  GLN A   1     -12.937  20.553 -29.509  0.00  0.00    +0.219 C 
ATOM      9  OE1 GLN A   1     -13.068  20.460 -28.289  0.00  0.00    -0.275 OA
ATOM     10  NE2 GLN A   1     -13.807  20.027 -30.364  0.00  0.00    -0.329 N 
ATOM     11 HE21 GLN A   1     -14.638  19.512 -30.009  0.00  0.00    +0.145 HD
ATOM     12 HE22 GLN A   1     -13.657  20.130 -31.388  0.00  0.00    +0.145 HD
ENDBRANCH   7   8
ENDBRANCH   1   7
TORSDOF 5
REMARK  Name = ../refined-set-2016/4x8o/4x8o_pocket.pdb
REMARK  358 active torsions:
REMARK  status: ('A' for Active; 'I' for Inactive)
REMARK    1  A    between atoms: _1  and  _3
REMARK    2  A    between atoms: _3  and  _4
REMARK    3  A    between atoms: _3  and  _6
REMARK    4  A    between atoms: _6  and  _7
REMARK    5  A    between atoms: _10  and  _12
REMARK    6  A    between atoms: _12  and  _13
REMARK    7  A    between atoms: _12  and  _15
REMARK    8  A    between atoms: _15  and  _16
REMARK    9  A    between atoms: _19  and  _21
REMARK   10  A    between atoms: _21  and  _22
REMARK   11  A    between atoms: _24  and  _26
REMARK   12  A    between atoms: _26  and  _27
REMARK   13  A    between atoms: _31  and  _32
REMARK   14  A    between atoms: _37  and  _39
REMARK   15  A    between atoms: _39  and  _40
REMARK   16  A    between atoms: _42  and  _44
REMARK   17  A    between atoms: _44  and  _45
REMARK   18  A    between atoms: _48  and  _50
REMARK   19  A    between atoms: _50  and  _51
REMARK   20  A    between atoms: _53  and  _55
REMARK   21  A    between atoms: _55  and  _56
REMARK   22  A    between atoms: _55  and  _58
REMARK   23  A    between atoms: _58  and  _59
REMARK   24  A    between atoms: _59  and  _60
REMARK   25  A    between atoms: _60  and  _61
REMARK   26  A    between atoms: _61  and  _62
REMARK   27  A    between atoms: _66  and  _68
REMARK   28  A    between atoms: _68  and  _69
REMARK   29  A    between atoms: _71  and  _73
REMARK   30  A    between atoms: _73  and  _74
REMARK   31  A    between atoms: _73  and  _76
REMARK   32  A    between atoms: _76  and  _77
REMARK   33  A    between atoms: _80  and  _82
REMARK   34  A    between atoms: _82  and  _83
REMARK   35  A    between atoms: _82  and  _85
REMARK   36  A    between atoms: _85  and  _86
REMARK   37  A    between atoms: _86  and  _87
REMARK   38  A    between atoms: _92  and  _94
REMARK   39  A    between atoms: _94  and  _95
REMARK   40  A    between atoms: _98  and  _100
REMARK   41  A    between atoms: _100  and  _101
REMARK   42  A    between atoms: _100  and  _103
REMARK   43  A    between atoms: _103  and  _104
REMARK   44  A    between atoms: _104  and  _105
REMARK   45  A    between atoms: _110  and  _112
REMARK   46  A    between atoms: _112  and  _113
REMARK   47  A    between atoms: _112  and  _115
REMARK   48  A    between atoms: _115  and  _116
REMARK   49  A    between atoms: _122  and  _124
REMARK   50  A    between atoms: _124  and  _125
REMARK   51  A    between atoms: _124  and  _127
REMARK   52  A    between atoms: _127  and  _128
REMARK   53  A    between atoms: _128  and  _129
REMARK   54  A    between atoms: _134  and  _136
REMARK   55  A    between atoms: _136  and  _137
REMARK   56  A    between atoms: _136  and  _139
REMARK   57  A    between atoms: _139  and  _140
REMARK   58  A    between atoms: _142  and  _144
REMARK   59  A    between atoms: _144  and  _145
REMARK   60  A    between atoms: _144  and  _147
REMARK   61  A    between atoms: _147  and  _148
REMARK   62  A    between atoms: _151  and  _153
REMARK   63  A    between atoms: _153  and  _154
REMARK   64  A    between atoms: _156  and  _158
REMARK   65  A    between atoms: _158  and  _159
REMARK   66  A    between atoms: _158  and  _161
REMARK   67  A    between atoms: _161  and  _162
REMARK   68  A    between atoms: _165  and  _167
REMARK   69  A    between atoms: _167  and  _168
REMARK   70  A    between atoms: _167  and  _170
REMARK   71  A    between atoms: _170  and  _171
REMARK   72  A    between atoms: _171  and  _172
REMARK   73  A    between atoms: _174  and  _176
REMARK   74  A    between atoms: _176  and  _177
REMARK   75  A    between atoms: _176  and  _179
REMARK   76  A    between atoms: _179  and  _180
REMARK   77  A    between atoms: _183  and  _185
REMARK   78  A    between atoms: _185  and  _186
REMARK   79  A    between atoms: _185  and  _188
REMARK   80  A    between atoms: _188  and  _189
REMARK   81  A    between atoms: _189  and  _190
REMARK   82  A    between atoms: _190  and  _191
REMARK   83  A    between atoms: _200  and  _202
REMARK   84  A    between atoms: _202  and  _203
REMARK   85  A    between atoms: _206  and  _208
REMARK   86  A    between atoms: _208  and  _209
REMARK   87  A    between atoms: _208  and  _211
REMARK   88  A    between atoms: _211  and  _212
REMARK   89  A    between atoms: _212  and  _213
REMARK   90  A    between atoms: _213  and  _214
REMARK   91  A    between atoms: _214  and  _215
REMARK   92  A    between atoms: _219  and  _221
REMARK   93  A    between atoms: _221  and  _222
REMARK   94  A    between atoms: _221  and  _224
REMARK   95  A    between atoms: _224  and  _225
REMARK   96  A    between atoms: _228  and  _230
REMARK   97  A    between atoms: _230  and  _231
REMARK   98  A    between atoms: _230  and  _233
REMARK   99  A    between atoms: _233  and  _234
REMARK  100  A    between atoms: _237  and  _239
REMARK  101  A    between atoms: _239  and  _240
REMARK  102  A    between atoms: _239  and  _242
REMARK  103  A    between atoms: _242  and  _243
REMARK  104  A    between atoms: _243  and  _244
REMARK  105  A    between atoms: _246  and  _248
REMARK  106  A    between atoms: _248  and  _249
REMARK  107  A    between atoms: _248  and  _251
REMARK  108  A    between atoms: _251  and  _252
REMARK  109  A    between atoms: _255  and  _257
REMARK  110  A    between atoms: _257  and  _258
REMARK  111  A    between atoms: _261  and  _263
REMARK  112  A    between atoms: _263  and  _264
REMARK  113  A    between atoms: _266  and  _268
REMARK  114  A    between atoms: _268  and  _269
REMARK  115  A    between atoms: _268  and  _271
REMARK  116  A    between atoms: _271  and  _272
REMARK  117  A    between atoms: _272  and  _273
REMARK  118  A    between atoms: _273  and  _274
REMARK  119  A    between atoms: _274  and  _275
REMARK  120  A    between atoms: _279  and  _281
REMARK  121  A    between atoms: _281  and  _282
REMARK  122  A    between atoms: _281  and  _284
REMARK  123  A    between atoms: _284  and  _285
REMARK  124  A    between atoms: _288  and  _290
REMARK  125  A    between atoms: _290  and  _291
REMARK  126  A    between atoms: _290  and  _293
REMARK  127  A    between atoms: _296  and  _298
REMARK  128  A    between atoms: _298  and  _299
REMARK  129  A    between atoms: _298  and  _301
REMARK  130  A    between atoms: _301  and  _302
REMARK  131  A    between atoms: _305  and  _307
REMARK  132  A    between atoms: _307  and  _308
REMARK  133  A    between atoms: _307  and  _310
REMARK  134  A    between atoms: _310  and  _311
REMARK  135  A    between atoms: _314  and  _316
REMARK  136  A    between atoms: _316  and  _317
REMARK  137  A    between atoms: _316  and  _319
REMARK  138  A    between atoms: _319  and  _320
REMARK  139  A    between atoms: _320  and  _321
REMARK  140  A    between atoms: _324  and  _326
REMARK  141  A    between atoms: _326  and  _327
REMARK  142  A    between atoms: _326  and  _329
REMARK  143  A    between atoms: _329  and  _330
REMARK  144  A    between atoms: _333  and  _335
REMARK  145  A    between atoms: _335  and  _336
REMARK  146  A    between atoms: _335  and  _338
REMARK  147  A    between atoms: _341  and  _343
REMARK  148  A    between atoms: _343  and  _344
REMARK  149  A    between atoms: _343  and  _346
REMARK  150  A    between atoms: _346  and  _347
REMARK  151  A    between atoms: _350  and  _352
REMARK  152  A    between atoms: _352  and  _353
REMARK  153  A    between atoms: _352  and  _355
REMARK  154  A    between atoms: _358  and  _360
REMARK  155  A    between atoms: _360  and  _361
REMARK  156  A    between atoms: _360  and  _363
REMARK  157  A    between atoms: _363  and  _364
REMARK  158  A    between atoms: _367  and  _369
REMARK  159  A    between atoms: _369  and  _370
REMARK  160  A    between atoms: _372  and  _374
REMARK  161  A    between atoms: _374  and  _375
REMARK  162  A    between atoms: _374  and  _377
REMARK  163  A    between atoms: _377  and  _378
REMARK  164  A    between atoms: _385  and  _386
REMARK  165  A    between atoms: _391  and  _393
REMARK  166  A    between atoms: _393  and  _394
REMARK  167  A    between atoms: _393  and  _396
REMARK  168  A    between atoms: _396  and  _397
REMARK  169  A    between atoms: _397  and  _398
REMARK  170  A    between atoms: _398  and  _399
REMARK  171  A    between atoms: _408  and  _410
REMARK  172  A    between atoms: _410  and  _411
REMARK  173  A    between atoms: _410  and  _413
REMARK  174  A    between atoms: _413  and  _414
REMARK  175  A    between atoms: _417  and  _419
REMARK  176  A    between atoms: _419  and  _420
REMARK  177  A    between atoms: _419  and  _422
REMARK  178  A    between atoms: _422  and  _423
REMARK  179  A    between atoms: _423  and  _424
REMARK  180  A    between atoms: _429  and  _431
REMARK  181  A    between atoms: _431  and  _432
REMARK  182  A    between atoms: _431  and  _434
REMARK  183  A    between atoms: _434  and  _435
REMARK  184  A    between atoms: _441  and  _443
REMARK  185  A    between atoms: _443  and  _444
REMARK  186  A    between atoms: _443  and  _446
REMARK  187  A    between atoms: _449  and  _451
REMARK  188  A    between atoms: _451  and  _452
REMARK  189  A    between atoms: _451  and  _454
REMARK  190  A    between atoms: _454  and  _455
REMARK  191  A    between atoms: _458  and  _460
REMARK  192  A    between atoms: _460  and  _461
REMARK  193  A    between atoms: _460  and  _463
REMARK  194  A    between atoms: _463  and  _464
REMARK  195  A    between atoms: _467  and  _469
REMARK  196  A    between atoms: _469  and  _470
REMARK  197  A    between atoms: _469  and  _472
REMARK  198  A    between atoms: _475  and  _477
REMARK  199  A    between atoms: _477  and  _478
REMARK  200  A    between atoms: _477  and  _480
REMARK  201  A    between atoms: _480  and  _481
REMARK  202  A    between atoms: _484  and  _486
REMARK  203  A    between atoms: _486  and  _487
REMARK  204  A    between atoms: _486  and  _489
REMARK  205  A    between atoms: _489  and  _490
REMARK  206  A    between atoms: _490  and  _491
REMARK  207  A    between atoms: _491  and  _492
REMARK  208  A    between atoms: _501  and  _503
REMARK  209  A    between atoms: _503  and  _504
REMARK  210  A    between atoms: _503  and  _506
REMARK  211  A    between atoms: _506  and  _507
REMARK  212  A    between atoms: _510  and  _512
REMARK  213  A    between atoms: _512  and  _513
REMARK  214  A    between atoms: _512  and  _515
REMARK  215  A    between atoms: _518  and  _520
REMARK  216  A    between atoms: _520  and  _521
REMARK  217  A    between atoms: _523  and  _525
REMARK  218  A    between atoms: _525  and  _526
REMARK  219  A    between atoms: _525  and  _528
REMARK  220  A    between atoms: _528  and  _529
REMARK  221  A    between atoms: _529  and  _530
REMARK  222  A    between atoms: _530  and  _531
REMARK  223  A    between atoms: _540  and  _542
REMARK  224  A    between atoms: _542  and  _543
REMARK  225  A    between atoms: _542  and  _545
REMARK  226  A    between atoms: _545  and  _546
REMARK  227  A    between atoms: _546  and  _547
REMARK  228  A    between atoms: _547  and  _548
REMARK  229  A    between atoms: _557  and  _559
REMARK  230  A    between atoms: _559  and  _560
REMARK  231  A    between atoms: _559  and  _562
REMARK  232  A    between atoms: _565  and  _567
REMARK  233  A    between atoms: _567  and  _568
REMARK  234  A    between atoms: _570  and  _572
REMARK  235  A    between atoms: _572  and  _573
REMARK  236  A    between atoms: _572  and  _575
REMARK  237  A    between atoms: _575  and  _576
REMARK  238  A    between atoms: _576  and  _577
REMARK  239  A    between atoms: _577  and  _578
REMARK  240  A    between atoms: _587  and  _589
REMARK  241  A    between atoms: _589  and  _590
REMARK  242  A    between atoms: _589  and  _592
REMARK  243  A    between atoms: _595  and  _597
REMARK  244  A    between atoms: _597  and  _598
REMARK  245  A    between atoms: _597  and  _600
REMARK  246  A    between atoms: _600  and  _601
REMARK  247  A    between atoms: _606  and  _607
REMARK  248  A    between atoms: _609  and  _611
REMARK  249  A    between atoms: _611  and  _612
REMARK  250  A    between atoms: _611  and  _614
REMARK  251  A    between atoms: _614  and  _615
REMARK  252  A    between atoms: _620  and  _622
REMARK  253  A    between atoms: _622  and  _623
REMARK  254  A    between atoms: _622  and  _625
REMARK  255  A    between atoms: _628  and  _630
REMARK  256  A    between atoms: _630  and  _631
REMARK  257  A    between atoms: _630  and  _633
REMARK  258  A    between atoms: _633  and  _634
REMARK  259  A    between atoms: _634  and  _635
REMARK  260  A    between atoms: _635  and  _636
REMARK  261  A    between atoms: _636  and  _637
REMARK  262  A    between atoms: _641  and  _643
REMARK  263  A    between atoms: _643  and  _644
REMARK  264  A    between atoms: _643  and  _646
REMARK  265  A    between atoms: _646  and  _647
REMARK  266  A    between atoms: _653  and  _655
REMARK  267  A    between atoms: _655  and  _656
REMARK  268  A    between atoms: _655  and  _658
REMARK  269  A    between atoms: _658  and  _659
REMARK  270  A    between atoms: _665  and  _666
REMARK  271  A    between atoms: _671  and  _673
REMARK  272  A    between atoms: _673  and  _674
REMARK  273  A    between atoms: _673  and  _676
REMARK  274  A    between atoms: _676  and  _677
REMARK  275  A    between atoms: _677  and  _678
REMARK  276  A    between atoms: _678  and  _679
REMARK  277  A    between atoms: _688  and  _690
REMARK  278  A    between atoms: _690  and  _691
REMARK  279  A    between atoms: _690  and  _693
REMARK  280  A    between atoms: _693  and  _694
REMARK  281  A    between atoms: _697  and  _699
REMARK  282  A    between atoms: _699  and  _700
REMARK  283  A    between atoms: _699  and  _702
REMARK  284  A    between atoms: _702  and  _703
REMARK  285  A    between atoms: _706  and  _708
REMARK  286  A    between atoms: _708  and  _709
REMARK  287  A    between atoms: _708  and  _711
REMARK  288  A    between atoms: _711  and  _712
REMARK  289  A    between atoms: _715  and  _717
REMARK  290  A    between atoms: _717  and  _718
REMARK  291  A    between atoms: _717  and  _720
REMARK  292  A    between atoms: _723  and  _725
REMARK  293  A    between atoms: _725  and  _726
REMARK  294  A    between atoms: _725  and  _728
REMARK  295  A    between atoms: _728  and  _729
REMARK  296  A    between atoms: _729  and  _730
REMARK  297  A    between atoms: _730  and  _731
REMARK  298  A    between atoms: _731  and  _732
REMARK  299  A    between atoms: _736  and  _738
REMARK  300  A    between atoms: _738  and  _739
REMARK  301  A    between atoms: _738  and  _741
REMARK  302  A    between atoms: _741  and  _742
REMARK  303  A    between atoms: _742  and  _743
REMARK  304  A    between atoms: _743  and  _744
REMARK  305  A    between atoms: _753  and  _755
REMARK  306  A    between atoms: _755  and  _756
REMARK  307  A    between atoms: _755  and  _758
REMARK  308  A    between atoms: _758  and  _759
REMARK  309  A    between atoms: _762  and  _764
REMARK  310  A    between atoms: _764  and  _765
REMARK  311  A    between atoms: _764  and  _767
REMARK  312  A    between atoms: _767  and  _768
REMARK  313  A    between atoms: _768  and  _769
REMARK  314  A    between atoms: _772  and  _774
REMARK  315  A    between atoms: _774  and  _775
REMARK  316  A    between atoms: _774  and  _777
REMARK  317  A    between atoms: _777  and  _778
REMARK  318  A    between atoms: _788  and  _790
REMARK  319  A    between atoms: _790  and  _791
REMARK  320  A    between atoms: _790  and  _793
REMARK  321  A    between atoms: _793  and  _794
REMARK  322  A    between atoms: _797  and  _799
REMARK  323  A    between atoms: _799  and  _800
REMARK  324  A    between atoms: _799  and  _802
REMARK  325  A    between atoms: _802  and  _803
REMARK  326  A    between atoms: _806  and  _808
REMARK  327  A    between atoms: _808  and  _809
REMARK  328  A    between atoms: _811  and  _813
REMARK  329  A    between atoms: _813  and  _814
REMARK  330  A    between atoms: _813  and  _816
REMARK  331  A    between atoms: _816  and  _817
REMARK  332  A    between atoms: _820  and  _822
REMARK  333  A    between atoms: _822  and  _823
REMARK  334  A    between atoms: _822  and  _825
REMARK  335  A    between atoms: _825  and  _826
REMARK  336  A    between atoms: _826  and  _827
REMARK  337  A    between atoms: _827  and  _828
REMARK  338  A    between atoms: _828  and  _829
REMARK  339  A    between atoms: _834  and  _835
REMARK  340  A    between atoms: _840  and  _842
REMARK  341  A    between atoms: _842  and  _843
REMARK  342  A    between atoms: _842  and  _845
REMARK  343  A    between atoms: _848  and  _850
REMARK  344  A    between atoms: _850  and  _851
REMARK  345  A    between atoms: _854  and  _856
REMARK  346  A    between atoms: _856  and  _857
REMARK  347  A    between atoms: _856  and  _859
REMARK  348  A    between atoms: _859  and  _860
REMARK  349  A    between atoms: _860  and  _861
REMARK  350  A    between atoms: _864  and  _866
REMARK  351  A    between atoms: _866  and  _867
REMARK  352  A    between atoms: _866  and  _869
REMARK  353  A    between atoms: _872  and  _874
REMARK  354  A    between atoms: _874  and  _875
REMARK  355  A    between atoms: _874  and  _877
REMARK  356  A    between atoms: _877  and  _878
REMARK  357  A    between atoms: _878  and  _879
REMARK  358  A    between atoms: _879  and  _880
REMARK                            x       y       z     vdW  Elec       q    Type
REMARK                         _______ _______ _______ _____ _____    ______ ____
ROOT
ATOM      1  C   ASP A   4     -19.308  26.329 -29.648  0.00  0.00    +0.241 C 
ATOM      2  O   ASP A   4     -20.080  26.759 -28.788  0.00  0.00    -0.273 OA
ATOM      3  N   MET A   5     -18.483  27.114 -30.336  0.00  0.00    -0.297 N 
ATOM      4  H   MET A   5     -17.879  26.695 -31.071  0.00  0.00    +0.150 HD
ENDROOT
BRANCH   3   5
ATOM      5  CA  MET A   5     -18.406  28.548 -30.084  0.00  0.00    +0.149 C 
BRANCH   5   6
ATOM      6  C   MET A   5     -19.708  29.255 -30.457  0.00  0.00    +0.241 C 
ATOM      7  O   MET A   5     -20.175  30.132 -29.733  0.00  0.00    -0.273 OA
ATOM      8  N   LEU A   6     -20.289  28.871 -31.590  0.00  0.00    -0.297 N 
ATOM      9  H   LEU A   6     -19.840  28.132 -32.168  0.00  0.00    +0.150 HD
BRANCH   8  10
ATOM     10  CA  LEU A   6     -21.545  29.466 -32.039  0.00  0.00    +0.149 C 
BRANCH  10  11
ATOM     11  C   LEU A   6     -22.686  29.096 -31.094  0.00  0.00    +0.241 C 
ATOM     12  N   ARG A   7     -22.712  27.839 -30.662  0.00  0.00    -0.298 N 
ATOM     13  H   ARG A   7     -21.984  27.170 -30.986  0.00  0.00    +0.150 HD
ATOM     14  O   LEU A   6     -23.523  29.935 -30.758  0.00  0.00    -0.273 OA
BRANCH  12  15
ATOM     15  CA  ARG A   7     -23.746  27.384 -29.740  0.00  0.00    +0.137 C 
BRANCH  15  16
ATOM     16  C   ARG A   7     -23.616  28.068 -28.379  0.00  0.00    +0.227 C 
ATOM     17  O   ARG A   7     -24.619  28.377 -27.735  0.00  0.00    -0.286 OA
ENDBRANCH  15  16
BRANCH  15  18
ATOM     18  CB  ARG A   7     -23.695  25.861 -29.584  0.00  0.00    +0.031 C 
BRANCH  18  19
ATOM     19  CG  ARG A   7     -24.368  25.109 -30.729  0.00  0.00    +0.045 C 
BRANCH  19  20
ATOM     20  CD  ARG A   7     -24.447  23.607 -30.470  0.00  0.00    +0.174 C 
BRANCH  20  21
ATOM     21  NE  ARG A   7     -23.131  22.980 -30.391  0.00  0.00    -0.265 N 
ATOM     22  HE  ARG A   7     -22.714  22.846 -29.448  0.00  0.00    +0.259 HD
ATOM     23  CZ  ARG A   7     -22.430  22.569 -31.444  0.00  0.00    +0.342 C 
ATOM     24  NH2 ARG A   7     -21.241  22.007 -31.273  0.00  0.00    -0.292 N 
ATOM     25 HH21 ARG A   7     -20.855  21.887 -30.315  0.00  0.00    +0.255 HD
ATOM     26 HH22 ARG A   7     -20.694  21.686 -32.097  0.00  0.00    +0.255 HD
ATOM     27  NH1 ARG A   7     -22.912  22.725 -32.670  0.00  0.00    -0.292 N 
ATOM     28 HH11 ARG A   7     -23.841  23.170 -32.811  0.00  0.00    +0.255 HD
ATOM     29 HH12 ARG A   7     -22.361  22.402 -33.491  0.00  0.00    +0.255 HD
ENDBRANCH  20  21
ENDBRANCH  19  20
ENDBRANCH  18  19
ENDBRANCH  15  18
ENDBRANCH  12  15
ENDBRANCH  10  11
BRANCH  10  30
ATOM     30  CB  LEU A   6     -21.876  29.029 -33.471  0.00  0.00    +0.029 C 
BRANCH  30  31
ATOM     31  CG  LEU A   6     -21.040  29.657 -34.595  0.00  0.00    +0.002 C 
ATOM     32  CD2 LEU A   6     -21.454  31.099 -34.840  0.00  0.00    +0.000 C 
ATOM     33  CD1 LEU A   6     -21.157  28.845 -35.878  0.00  0.00    +0.000 C 
ENDBRANCH  30  31
ENDBRANCH  10  30
ENDBRANCH   8  10
ENDBRANCH   5   6
BRANCH   5  34
ATOM     34  CB  MET A   5     -17.229  29.157 -30.849  0.00  0.00    +0.041 C 
BRANCH  34  35
ATOM     35  CG  MET A   5     -15.874  28.599 -30.431  0.00  0.00    +0.060 C 
BRANCH  35  36
ATOM     36  SD  MET A   5     -14.602  28.800 -31.695  0.00  0.00    -0.139 S 
ATOM     37  CE  MET A   5     -14.593  30.582 -31.877  0.00  0.00    +0.069 C 
ENDBRANCH  35  36
ENDBRANCH  34  35
ENDBRANCH   5  34
ENDBRANCH   3   5
BRANCH   1  38
ATOM     38  CA  ASP A   4     -19.260  24.838 -29.974  0.00  0.00    +0.160 C 
BRANCH  38  40
ATOM     39  C   GLY A   3     -20.137  24.956 -32.242  0.00  0.00    +0.243 C 
ATOM     40  N   ASP A   4     -19.153  24.620 -31.412  0.00  0.00    -0.296 N 
ATOM     41  H   ASP A   4     -18.287  24.192 -31.798  0.00  0.00    +0.150 HD
ATOM     42  O   GLY A   3     -21.207  25.432 -31.854  0.00  0.00    -0.273 OA
BRANCH  39  43
ATOM     43  CA  GLY A   3     -19.880  24.726 -33.721  0.00  0.00    +0.176 C 
BRANCH  43  46
ATOM     44  C   THR A   2     -18.238  26.486 -34.052  0.00  0.00    +0.243 C 
ATOM     45  O   THR A   2     -19.031  27.360 -33.710  0.00  0.00    -0.273 OA
ATOM     46  N   GLY A   3     -18.567  25.199 -34.124  0.00  0.00    -0.295 N 
ATOM     47  H   GLY A   3     -17.868  24.515 -34.477  0.00  0.00    +0.150 HD
BRANCH  44  48
ATOM     48  CA  THR A   2     -16.795  26.844 -34.402  0.00  0.00    +0.176 C 
BRANCH  48  51
ATOM     49  C   SER A   1     -15.728  25.368 -32.795  0.00  0.00    +0.241 C 
ATOM     50  O   SER A   1     -16.353  25.866 -31.861  0.00  0.00    -0.274 OA
ATOM     51  N   THR A   2     -15.884  25.759 -34.058  0.00  0.00    -0.295 N 
ATOM     52  H   THR A   2     -15.348  25.283 -34.811  0.00  0.00    +0.150 HD
BRANCH  49  53
ATOM     53  CA  SER A   1     -14.727  24.251 -32.541  0.00  0.00    +0.174 C 
BRANCH  53  54
ATOM     54  N   SER A   1     -13.543  24.759 -31.858  0.00  0.00    -0.236 NA
ATOM     55  H   SER A   1     -13.593  24.940 -30.835  0.00  0.00    +0.142 HD
ENDBRANCH  53  54
BRANCH  53  56
ATOM     56  CB  SER A   1     -15.379  23.139 -31.716  0.00  0.00    +0.163 C 
BRANCH  56  57
ATOM     57  OG  SER A   1     -16.647  22.786 -32.239  0.00  0.00    -0.380 OA
ATOM     58  H   SER A   1     -16.541  22.467 -33.170  0.00  0.00    +0.211 HD
ENDBRANCH  56  57
ENDBRANCH  53  56
ENDBRANCH  49  53
ENDBRANCH  48  51
BRANCH  48  59
ATOM     59  CB  THR A   2     -16.704  27.218 -35.895  0.00  0.00    +0.137 C 
ATOM     60  CG2 THR A   2     -15.549  28.170 -36.123  0.00  0.00    +0.034 C 
BRANCH  59  61
ATOM     61  OG1 THR A   2     -16.492  26.038 -36.678  0.00  0.00    -0.382 OA
ATOM     62  HG1 THR A   2     -17.247  25.413 -36.542  0.00  0.00    +0.210 HD
ENDBRANCH  59  61
ENDBRANCH  48  59
ENDBRANCH  44  48
ENDBRANCH  43  46
ENDBRANCH  39  43
ENDBRANCH  38  40
BRANCH  38  63
ATOM     63  CB  ASP A   4     -18.090  24.182 -29.228  0.00  0.00    +0.143 C 
BRANCH  63  64
ATOM     64  CG  ASP A   4     -18.185  22.666 -29.200  0.00  0.00    +0.367 C 
ATOM     65  OD2 ASP A   4     -17.171  22.016 -28.876  0.00  0.00    -0.246 OA
ATOM     66  OD1 ASP A   4     -19.273  22.124 -29.490  0.00  0.00    -0.246 OA
ENDBRANCH  63  64
ENDBRANCH  38  63
ENDBRANCH   1  38
TORSDOF 29
REMARK  Name = ../refined-set-2016/4x8o/4x8o_pocket.pdb
REMARK  358 active torsions:
REMARK  status: ('A' for Active; 'I' for Inactive)
REMARK    1  A    between atoms: _1  and  _3
REMARK    2  A    between atoms: _3  and  _4
REMARK    3  A    between atoms: _3  and  _6
REMARK    4  A    between atoms: _6  and  _7
REMARK    5  A    between atoms: _10  and  _12
REMARK    6  A    between atoms: _12  and  _13
REMARK    7  A    between atoms: _12  and  _15
REMARK    8  A    between atoms: _15  and  _16
REMARK    9  A    between atoms: _19  and  _21
REMARK   10  A    between atoms: _21  and  _22
REMARK   11  A    between atoms: _24  and  _26
REMARK   12  A    between atoms: _26  and  _27
REMARK   13  A    between atoms: _31  and  _32
REMARK   14  A    between atoms: _37  and  _39
REMARK   15  A    between atoms: _39  and  _40
REMARK   16  A    between atoms: _42  and  _44
REMARK   17  A    between atoms: _44  and  _45
REMARK   18  A    between atoms: _48  and  _50
REMARK   19  A    between atoms: _50  and  _51
REMARK   20  A    between atoms: _53  and  _55
REMARK   21  A    between atoms: _55  and  _56
REMARK   22  A    between atoms: _55  and  _58
REMARK   23  A    between atoms: _58  and  _59
REMARK   24  A    between atoms: _59  and  _60
REMARK   25  A    between atoms: _60  and  _61
REMARK   26  A    between atoms: _61  and  _62
REMARK   27  A    between atoms: _66  and  _68
REMARK   28  A    between atoms: _68  and  _69
REMARK   29  A    between atoms: _71  and  _73
REMARK   30  A    between atoms: _73  and  _74
REMARK   31  A    between atoms: _73  and  _76
REMARK   32  A    between atoms: _76  and  _77
REMARK   33  A    between atoms: _80  and  _82
REMARK   34  A    between atoms: _82  and  _83
REMARK   35  A    between atoms: _82  and  _85
REMARK   36  A    between atoms: _85  and  _86
REMARK   37  A    between atoms: _86  and  _87
REMARK   38  A    between atoms: _92  and  _94
REMARK   39  A    between atoms: _94  and  _95
REMARK   40  A    between atoms: _98  and  _100
REMARK   41  A    between atoms: _100  and  _101
REMARK   42  A    between atoms: _100  and  _103
REMARK   43  A    between atoms: _103  and  _104
REMARK   44  A    between atoms: _104  and  _105
REMARK   45  A    between atoms: _110  and  _112
REMARK   46  A    between atoms: _112  and  _113
REMARK   47  A    between atoms: _112  and  _115
REMARK   48  A    between atoms: _115  and  _116
REMARK   49  A    between atoms: _122  and  _124
REMARK   50  A    between atoms: _124  and  _125
REMARK   51  A    between atoms: _124  and  _127
REMARK   52  A    between atoms: _127  and  _128
REMARK   53  A    between atoms: _128  and  _129
REMARK   54  A    between atoms: _134  and  _136
REMARK   55  A    between atoms: _136  and  _137
REMARK   56  A    between atoms: _136  and  _139
REMARK   57  A    between atoms: _139  and  _140
REMARK   58  A    between atoms: _142  and  _144
REMARK   59  A    between atoms: _144  and  _145
REMARK   60  A    between atoms: _144  and  _147
REMARK   61  A    between atoms: _147  and  _148
REMARK   62  A    between atoms: _151  and  _153
REMARK   63  A    between atoms: _153  and  _154
REMARK   64  A    between atoms: _156  and  _158
REMARK   65  A    between atoms: _158  and  _159
REMARK   66  A    between atoms: _158  and  _161
REMARK   67  A    between atoms: _161  and  _162
REMARK   68  A    between atoms: _165  and  _167
REMARK   69  A    between atoms: _167  and  _168
REMARK   70  A    between atoms: _167  and  _170
REMARK   71  A    between atoms: _170  and  _171
REMARK   72  A    between atoms: _171  and  _172
REMARK   73  A    between atoms: _174  and  _176
REMARK   74  A    between atoms: _176  and  _177
REMARK   75  A    between atoms: _176  and  _179
REMARK   76  A    between atoms: _179  and  _180
REMARK   77  A    between atoms: _183  and  _185
REMARK   78  A    between atoms: _185  and  _186
REMARK   79  A    between atoms: _185  and  _188
REMARK   80  A    between atoms: _188  and  _189
REMARK   81  A    between atoms: _189  and  _190
REMARK   82  A    between atoms: _190  and  _191
REMARK   83  A    between atoms: _200  and  _202
REMARK   84  A    between atoms: _202  and  _203
REMARK   85  A    between atoms: _206  and  _208
REMARK   86  A    between atoms: _208  and  _209
REMARK   87  A    between atoms: _208  and  _211
REMARK   88  A    between atoms: _211  and  _212
REMARK   89  A    between atoms: _212  and  _213
REMARK   90  A    between atoms: _213  and  _214
REMARK   91  A    between atoms: _214  and  _215
REMARK   92  A    between atoms: _219  and  _221
REMARK   93  A    between atoms: _221  and  _222
REMARK   94  A    between atoms: _221  and  _224
REMARK   95  A    between atoms: _224  and  _225
REMARK   96  A    between atoms: _228  and  _230
REMARK   97  A    between atoms: _230  and  _231
REMARK   98  A    between atoms: _230  and  _233
REMARK   99  A    between atoms: _233  and  _234
REMARK  100  A    between atoms: _237  and  _239
REMARK  101  A    between atoms: _239  and  _240
REMARK  102  A    between atoms: _239  and  _242
REMARK  103  A    between atoms: _242  and  _243
REMARK  104  A    between atoms: _243  and  _244
REMARK  105  A    between atoms: _246  and  _248
REMARK  106  A    between atoms: _248  and  _249
REMARK  107  A    between atoms: _248  and  _251
REMARK  108  A    between atoms: _251  and  _252
REMARK  109  A    between atoms: _255  and  _257
REMARK  110  A    between atoms: _257  and  _258
REMARK  111  A    between atoms: _261  and  _263
REMARK  112  A    between atoms: _263  and  _264
REMARK  113  A    between atoms: _266  and  _268
REMARK  114  A    between atoms: _268  and  _269
REMARK  115  A    between atoms: _268  and  _271
REMARK  116  A    between atoms: _271  and  _272
REMARK  117  A    between atoms: _272  and  _273
REMARK  118  A    between atoms: _273  and  _274
REMARK  119  A    between atoms: _274  and  _275
REMARK  120  A    between atoms: _279  and  _281
REMARK  121  A    between atoms: _281  and  _282
REMARK  122  A    between atoms: _281  and  _284
REMARK  123  A    between atoms: _284  and  _285
REMARK  124  A    between atoms: _288  and  _290
REMARK  125  A    between atoms: _290  and  _291
REMARK  126  A    between atoms: _290  and  _293
REMARK  127  A    between atoms: _296  and  _298
REMARK  128  A    between atoms: _298  and  _299
REMARK  129  A    between atoms: _298  and  _301
REMARK  130  A    between atoms: _301  and  _302
REMARK  131  A    between atoms: _305  and  _307
REMARK  132  A    between atoms: _307  and  _308
REMARK  133  A    between atoms: _307  and  _310
REMARK  134  A    between atoms: _310  and  _311
REMARK  135  A    between atoms: _314  and  _316
REMARK  136  A    between atoms: _316  and  _317
REMARK  137  A    between atoms: _316  and  _319
REMARK  138  A    between atoms: _319  and  _320
REMARK  139  A    between atoms: _320  and  _321
REMARK  140  A    between atoms: _324  and  _326
REMARK  141  A    between atoms: _326  and  _327
REMARK  142  A    between atoms: _326  and  _329
REMARK  143  A    between atoms: _329  and  _330
REMARK  144  A    between atoms: _333  and  _335
REMARK  145  A    between atoms: _335  and  _336
REMARK  146  A    between atoms: _335  and  _338
REMARK  147  A    between atoms: _341  and  _343
REMARK  148  A    between atoms: _343  and  _344
REMARK  149  A    between atoms: _343  and  _346
REMARK  150  A    between atoms: _346  and  _347
REMARK  151  A    between atoms: _350  and  _352
REMARK  152  A    between atoms: _352  and  _353
REMARK  153  A    between atoms: _352  and  _355
REMARK  154  A    between atoms: _358  and  _360
REMARK  155  A    between atoms: _360  and  _361
REMARK  156  A    between atoms: _360  and  _363
REMARK  157  A    between atoms: _363  and  _364
REMARK  158  A    between atoms: _367  and  _369
REMARK  159  A    between atoms: _369  and  _370
REMARK  160  A    between atoms: _372  and  _374
REMARK  161  A    between atoms: _374  and  _375
REMARK  162  A    between atoms: _374  and  _377
REMARK  163  A    between atoms: _377  and  _378
REMARK  164  A    between atoms: _385  and  _386
REMARK  165  A    between atoms: _391  and  _393
REMARK  166  A    between atoms: _393  and  _394
REMARK  167  A    between atoms: _393  and  _396
REMARK  168  A    between atoms: _396  and  _397
REMARK  169  A    between atoms: _397  and  _398
REMARK  170  A    between atoms: _398  and  _399
REMARK  171  A    between atoms: _408  and  _410
REMARK  172  A    between atoms: _410  and  _411
REMARK  173  A    between atoms: _410  and  _413
REMARK  174  A    between atoms: _413  and  _414
REMARK  175  A    between atoms: _417  and  _419
REMARK  176  A    between atoms: _419  and  _420
REMARK  177  A    between atoms: _419  and  _422
REMARK  178  A    between atoms: _422  and  _423
REMARK  179  A    between atoms: _423  and  _424
REMARK  180  A    between atoms: _429  and  _431
REMARK  181  A    between atoms: _431  and  _432
REMARK  182  A    between atoms: _431  and  _434
REMARK  183  A    between atoms: _434  and  _435
REMARK  184  A    between atoms: _441  and  _443
REMARK  185  A    between atoms: _443  and  _444
REMARK  186  A    between atoms: _443  and  _446
REMARK  187  A    between atoms: _449  and  _451
REMARK  188  A    between atoms: _451  and  _452
REMARK  189  A    between atoms: _451  and  _454
REMARK  190  A    between atoms: _454  and  _455
REMARK  191  A    between atoms: _458  and  _460
REMARK  192  A    between atoms: _460  and  _461
REMARK  193  A    between atoms: _460  and  _463
REMARK  194  A    between atoms: _463  and  _464
REMARK  195  A    between atoms: _467  and  _469
REMARK  196  A    between atoms: _469  and  _470
REMARK  197  A    between atoms: _469  and  _472
REMARK  198  A    between atoms: _475  and  _477
REMARK  199  A    between atoms: _477  and  _478
REMARK  200  A    between atoms: _477  and  _480
REMARK  201  A    between atoms: _480  and  _481
REMARK  202  A    between atoms: _484  and  _486
REMARK  203  A    between atoms: _486  and  _487
REMARK  204  A    between atoms: _486  and  _489
REMARK  205  A    between atoms: _489  and  _490
REMARK  206  A    between atoms: _490  and  _491
REMARK  207  A    between atoms: _491  and  _492
REMARK  208  A    between atoms: _501  and  _503
REMARK  209  A    between atoms: _503  and  _504
REMARK  210  A    between atoms: _503  and  _506
REMARK  211  A    between atoms: _506  and  _507
REMARK  212  A    between atoms: _510  and  _512
REMARK  213  A    between atoms: _512  and  _513
REMARK  214  A    between atoms: _512  and  _515
REMARK  215  A    between atoms: _518  and  _520
REMARK  216  A    between atoms: _520  and  _521
REMARK  217  A    between atoms: _523  and  _525
REMARK  218  A    between atoms: _525  and  _526
REMARK  219  A    between atoms: _525  and  _528
REMARK  220  A    between atoms: _528  and  _529
REMARK  221  A    between atoms: _529  and  _530
REMARK  222  A    between atoms: _530  and  _531
REMARK  223  A    between atoms: _540  and  _542
REMARK  224  A    between atoms: _542  and  _543
REMARK  225  A    between atoms: _542  and  _545
REMARK  226  A    between atoms: _545  and  _546
REMARK  227  A    between atoms: _546  and  _547
REMARK  228  A    between atoms: _547  and  _548
REMARK  229  A    between atoms: _557  and  _559
REMARK  230  A    between atoms: _559  and  _560
REMARK  231  A    between atoms: _559  and  _562
REMARK  232  A    between atoms: _565  and  _567
REMARK  233  A    between atoms: _567  and  _568
REMARK  234  A    between atoms: _570  and  _572
REMARK  235  A    between atoms: _572  and  _573
REMARK  236  A    between atoms: _572  and  _575
REMARK  237  A    between atoms: _575  and  _576
REMARK  238  A    between atoms: _576  and  _577
REMARK  239  A    between atoms: _577  and  _578
REMARK  240  A    between atoms: _587  and  _589
REMARK  241  A    between atoms: _589  and  _590
REMARK  242  A    between atoms: _589  and  _592
REMARK  243  A    between atoms: _595  and  _597
REMARK  244  A    between atoms: _597  and  _598
REMARK  245  A    between atoms: _597  and  _600
REMARK  246  A    between atoms: _600  and  _601
REMARK  247  A    between atoms: _606  and  _607
REMARK  248  A    between atoms: _609  and  _611
REMARK  249  A    between atoms: _611  and  _612
REMARK  250  A    between atoms: _611  and  _614
REMARK  251  A    between atoms: _614  and  _615
REMARK  252  A    between atoms: _620  and  _622
REMARK  253  A    between atoms: _622  and  _623
REMARK  254  A    between atoms: _622  and  _625
REMARK  255  A    between atoms: _628  and  _630
REMARK  256  A    between atoms: _630  and  _631
REMARK  257  A    between atoms: _630  and  _633
REMARK  258  A    between atoms: _633  and  _634
REMARK  259  A    between atoms: _634  and  _635
REMARK  260  A    between atoms: _635  and  _636
REMARK  261  A    between atoms: _636  and  _637
REMARK  262  A    between atoms: _641  and  _643
REMARK  263  A    between atoms: _643  and  _644
REMARK  264  A    between atoms: _643  and  _646
REMARK  265  A    between atoms: _646  and  _647
REMARK  266  A    between atoms: _653  and  _655
REMARK  267  A    between atoms: _655  and  _656
REMARK  268  A    between atoms: _655  and  _658
REMARK  269  A    between atoms: _658  and  _659
REMARK  270  A    between atoms: _665  and  _666
REMARK  271  A    between atoms: _671  and  _673
REMARK  272  A    between atoms: _673  and  _674
REMARK  273  A    between atoms: _673  and  _676
REMARK  274  A    between atoms: _676  and  _677
REMARK  275  A    between atoms: _677  and  _678
REMARK  276  A    between atoms: _678  and  _679
REMARK  277  A    between atoms: _688  and  _690
REMARK  278  A    between atoms: _690  and  _691
REMARK  279  A    between atoms: _690  and  _693
REMARK  280  A    between atoms: _693  and  _694
REMARK  281  A    between atoms: _697  and  _699
REMARK  282  A    between atoms: _699  and  _700
REMARK  283  A    between atoms: _699  and  _702
REMARK  284  A    between atoms: _702  and  _703
REMARK  285  A    between atoms: _706  and  _708
REMARK  286  A    between atoms: _708  and  _709
REMARK  287  A    between atoms: _708  and  _711
REMARK  288  A    between atoms: _711  and  _712
REMARK  289  A    between atoms: _715  and  _717
REMARK  290  A    between atoms: _717  and  _718
REMARK  291  A    between atoms: _717  and  _720
REMARK  292  A    between atoms: _723  and  _725
REMARK  293  A    between atoms: _725  and  _726
REMARK  294  A    between atoms: _725  and  _728
REMARK  295  A    between atoms: _728  and  _729
REMARK  296  A    between atoms: _729  and  _730
REMARK  297  A    between atoms: _730  and  _731
REMARK  298  A    between atoms: _731  and  _732
REMARK  299  A    between atoms: _736  and  _738
REMARK  300  A    between atoms: _738  and  _739
REMARK  301  A    between atoms: _738  and  _741
REMARK  302  A    between atoms: _741  and  _742
REMARK  303  A    between atoms: _742  and  _743
REMARK  304  A    between atoms: _743  and  _744
REMARK  305  A    between atoms: _753  and  _755
REMARK  306  A    between atoms: _755  and  _756
REMARK  307  A    between atoms: _755  and  _758
REMARK  308  A    between atoms: _758  and  _759
REMARK  309  A    between atoms: _762  and  _764
REMARK  310  A    between atoms: _764  and  _765
REMARK  311  A    between atoms: _764  and  _767
REMARK  312  A    between atoms: _767  and  _768
REMARK  313  A    between atoms: _768  and  _769
REMARK  314  A    between atoms: _772  and  _774
REMARK  315  A    between atoms: _774  and  _775
REMARK  316  A    between atoms: _774  and  _777
REMARK  317  A    between atoms: _777  and  _778
REMARK  318  A    between atoms: _788  and  _790
REMARK  319  A    between atoms: _790  and  _791
REMARK  320  A    between atoms: _790  and  _793
REMARK  321  A    between atoms: _793  and  _794
REMARK  322  A    between atoms: _797  and  _799
REMARK  323  A    between atoms: _799  and  _800
REMARK  324  A    between atoms: _799  and  _802
REMARK  325  A    between atoms: _802  and  _803
REMARK  326  A    between atoms: _806  and  _808
REMARK  327  A    between atoms: _808  and  _809
REMARK  328  A    between atoms: _811  and  _813
REMARK  329  A    between atoms: _813  and  _814
REMARK  330  A    between atoms: _813  and  _816
REMARK  331  A    between atoms: _816  and  _817
REMARK  332  A    between atoms: _820  and  _822
REMARK  333  A    between atoms: _822  and  _823
REMARK  334  A    between atoms: _822  and  _825
REMARK  335  A    between atoms: _825  and  _826
REMARK  336  A    between atoms: _826  and  _827
REMARK  337  A    between atoms: _827  and  _828
REMARK  338  A    between atoms: _828  and  _829
REMARK  339  A    between atoms: _834  and  _835
REMARK  340  A    between atoms: _840  and  _842
REMARK  341  A    between atoms: _842  and  _843
REMARK  342  A    between atoms: _842  and  _845
REMARK  343  A    between atoms: _848  and  _850
REMARK  344  A    between atoms: _850  and  _851
REMARK  345  A    between atoms: _854  and  _856
REMARK  346  A    between atoms: _856  and  _857
REMARK  347  A    between atoms: _856  and  _859
REMARK  348  A    between atoms: _859  and  _860
REMARK  349  A    between atoms: _860  and  _861
REMARK  350  A    between atoms: _864  and  _866
REMARK  351  A    between atoms: _866  and  _867
REMARK  352  A    between atoms: _866  and  _869
REMARK  353  A    between atoms: _872  and  _874
REMARK  354  A    between atoms: _874  and  _875
REMARK  355  A    between atoms: _874  and  _877
REMARK  356  A    between atoms: _877  and  _878
REMARK  357  A    between atoms: _878  and  _879
REMARK  358  A    between atoms: _879  and  _880
REMARK                            x       y       z     vdW  Elec       q    Type
REMARK                         _______ _______ _______ _____ _____    ______ ____
ROOT
ATOM      1  CA  LYS A   9     -27.536  26.114 -42.909  0.00  0.00    +0.149 C 
ENDROOT
BRANCH   1   3
ATOM      2  C   GLY A   8     -28.296  24.026 -41.897  0.00  0.00    +0.243 C 
ATOM      3  N   LYS A   9     -28.332  25.355 -41.948  0.00  0.00    -0.297 N 
ATOM      4  H   LYS A   9     -28.945  25.869 -41.284  0.00  0.00    +0.150 HD
ATOM      5  O   GLY A   8     -27.586  23.346 -42.637  0.00  0.00    -0.273 OA
BRANCH   2   6
ATOM      6  CA  GLY A   8     -29.189  23.367 -40.860  0.00  0.00    +0.176 C 
BRANCH   6   8
ATOM      7  C   ALA A   7     -31.309  24.535 -41.060  0.00  0.00    +0.241 C 
ATOM      8  N   GLY A   8     -30.217  24.259 -40.355  0.00  0.00    -0.295 N 
ATOM      9  H   GLY A   8     -30.096  24.693 -39.418  0.00  0.00    +0.150 HD
ATOM     10  O   ALA A   7     -31.538  24.034 -42.162  0.00  0.00    -0.273 OA
BRANCH   7  11
ATOM     11  CA  ALA A   7     -32.288  25.530 -40.437  0.00  0.00    +0.149 C 
ATOM     12  CB  ALA A   7     -32.316  26.816 -41.251  0.00  0.00    +0.031 C 
BRANCH  11  15
ATOM     13  C   ASP A   6     -32.333  25.009 -38.064  0.00  0.00    +0.241 C 
ATOM     14  O   ASP A   6     -33.110  24.070 -38.241  0.00  0.00    -0.273 OA
ATOM     15  N   ALA A   7     -31.944  25.815 -39.048  0.00  0.00    -0.297 N 
ATOM     16  H   ALA A   7     -31.385  26.663 -38.823  0.00  0.00    +0.150 HD
BRANCH  13  17
ATOM     17  CA  ASP A   6     -31.759  25.288 -36.673  0.00  0.00    +0.160 C 
BRANCH  17  19
ATOM     18  C   MET A   5     -29.411  25.580 -37.138  0.00  0.00    +0.241 C 
ATOM     19  N   ASP A   6     -30.557  26.117 -36.737  0.00  0.00    -0.297 N 
ATOM     20  H   ASP A   6     -30.599  27.121 -36.470  0.00  0.00    +0.150 HD
ATOM     21  O   MET A   5     -29.330  24.399 -37.474  0.00  0.00    -0.273 OA
BRANCH  18  22
ATOM     22  CA  MET A   5     -28.184  26.490 -37.196  0.00  0.00    +0.149 C 
BRANCH  22  24
ATOM     23  C   ILE A   4     -28.960  28.112 -38.812  0.00  0.00    +0.241 C 
ATOM     24  N   MET A   5     -28.558  27.844 -37.576  0.00  0.00    -0.297 N 
ATOM     25  H   MET A   5     -28.510  28.609 -36.873  0.00  0.00    +0.150 HD
ATOM     26  O   ILE A   4     -29.057  27.244 -39.680  0.00  0.00    -0.273 OA
BRANCH  23  27
ATOM     27  CA  ILE A   4     -29.313  29.565 -39.112  0.00  0.00    +0.149 C 
BRANCH  27  29
ATOM     28  C   ASP A   3     -31.302  29.755 -37.722  0.00  0.00    +0.241 C 
ATOM     29  N   ILE A   4     -30.073  30.158 -38.019  0.00  0.00    -0.297 N 
ATOM     30  H   ILE A   4     -29.640  30.918 -37.456  0.00  0.00    +0.150 HD
ATOM     31  O   ASP A   3     -31.876  28.850 -38.325  0.00  0.00    -0.273 OA
BRANCH  28  32
ATOM     32  CA  ASP A   3     -31.992  30.486 -36.579  0.00  0.00    +0.160 C 
BRANCH  32  35
ATOM     33  C   LYS A   2     -30.429  30.034 -34.770  0.00  0.00    +0.241 C 
ATOM     34  O   LYS A   2     -30.577  28.817 -34.892  0.00  0.00    -0.273 OA
ATOM     35  N   ASP A   3     -31.048  30.915 -35.551  0.00  0.00    -0.297 N 
ATOM     36  H   ASP A   3     -30.856  31.930 -35.427  0.00  0.00    +0.150 HD
BRANCH  33  37
ATOM     37  CA  LYS A   2     -29.497  30.600 -33.695  0.00  0.00    +0.149 C 
BRANCH  37  39
ATOM     38  C   ALA A   1     -27.654  31.099 -35.233  0.00  0.00    +0.238 C 
ATOM     39  N   LYS A   2     -28.426  31.458 -34.210  0.00  0.00    -0.297 N 
ATOM     40  H   LYS A   2     -28.263  32.381 -33.760  0.00  0.00    +0.150 HD
ATOM     41  O   ALA A   1     -27.883  30.118 -35.937  0.00  0.00    -0.274 OA
BRANCH  38  42
ATOM     42  CA  ALA A   1     -26.436  31.973 -35.520  0.00  0.00    +0.145 C 
ATOM     43  CB  ALA A   1     -25.172  31.254 -35.064  0.00  0.00    +0.028 C 
BRANCH  42  44
ATOM     44  N   ALA A   1     -26.505  33.293 -34.904  0.00  0.00    -0.238 NA
ATOM     45  H   ALA A   1     -25.886  33.505 -34.096  0.00  0.00    +0.142 HD
ENDBRANCH  42  44
ENDBRANCH  38  42
ENDBRANCH  37  39
BRANCH  37  46
ATOM     46  CB  LYS A   2     -30.330  31.359 -32.661  0.00  0.00    +0.029 C 
BRANCH  46  47
ATOM     47  CG  LYS A   2     -31.430  30.508 -32.051  0.00  0.00    +0.000 C 
BRANCH  47  48
ATOM     48  CD  LYS A   2     -32.099  31.195 -30.880  0.00  0.00    -0.024 C 
BRANCH  48  49
ATOM     49  CE  LYS A   2     -32.939  30.208 -30.086  0.00  0.00    -0.086 C 
BRANCH  49  50
ATOM     50  NZ  LYS A   2     -33.963  30.900 -29.260  0.00  0.00    +0.380 N 
ATOM     51  HZ1 LYS A   2     -33.491  31.542 -28.592  0.00  0.00    -0.089 HD
ATOM     52  HZ2 LYS A   2     -34.516  30.194 -28.733  0.00  0.00    -0.089 HD
ATOM     53  HZ3 LYS A   2     -34.595  31.446 -29.880  0.00  0.00    -0.089 HD
ENDBRANCH  49  50
ENDBRANCH  48  49
ENDBRANCH  47  48
ENDBRANCH  46  47
ENDBRANCH  37  46
ENDBRANCH  33  37
ENDBRANCH  32  35
BRANCH  32  54
ATOM     54  CB  ASP A   3     -32.765  31.685 -37.129  0.00  0.00    +0.143 C 
BRANCH  54  55
ATOM     55  CG  ASP A   3     -33.761  32.240 -36.133  0.00  0.00    +0.367 C 
ATOM     56  OD2 ASP A   3     -33.997  31.578 -35.100  0.00  0.00    -0.246 OA
ATOM     57  OD1 ASP A   3     -34.307  33.333 -36.387  0.00  0.00    -0.246 OA
ENDBRANCH  54  55
ENDBRANCH  32  54
ENDBRANCH  28  32
ENDBRANCH  27  29
BRANCH  27  58
ATOM     58  CB  ILE A   4     -28.022  30.363 -39.388  0.00  0.00    +0.027 C 
ATOM     59  CG2 ILE A   4     -27.253  29.760 -40.558  0.00  0.00    +0.002 C 
BRANCH  58  60
ATOM     60  CG1 ILE A   4     -28.356  31.835 -39.648  0.00  0.00    +0.002 C 
ATOM     61  CD1 ILE A   4     -27.138  32.725 -39.792  0.00  0.00    +0.000 C 
ENDBRANCH  58  60
ENDBRANCH  27  58
ENDBRANCH  23  27
ENDBRANCH  22  24
BRANCH  22  62
ATOM     62  CB  MET A   5     -27.443  26.497 -35.858  0.00  0.00    +0.041 C 
BRANCH  62  63
ATOM     63  CG  MET A   5     -26.069  27.157 -35.939  0.00  0.00    +0.060 C 
BRANCH  63  64
ATOM     64  SD  MET A   5     -25.068  26.942 -34.455  0.00  0.00    -0.139 S 
ATOM     65  CE  MET A   5     -26.055  27.838 -33.257  0.00  0.00    +0.069 C 
ENDBRANCH  63  64
ENDBRANCH  62  63
ENDBRANCH  22  62
ENDBRANCH  18  22
ENDBRANCH  17  19
BRANCH  17  66
ATOM     66  CB  ASP A   6     -32.816  25.930 -35.774  0.00  0.00    +0.143 C 
BRANCH  66  67
ATOM     67  CG  ASP A   6     -32.640  25.553 -34.313  0.00  0.00    +0.367 C 
ATOM     68  OD2 ASP A   6     -32.330  26.448 -33.499  0.00  0.00    -0.246 OA
ATOM     69  OD1 ASP A   6     -32.815  24.360 -33.977  0.00  0.00    -0.246 OA
ENDBRANCH  66  67
ENDBRANCH  17  66
ENDBRANCH  13  17
ENDBRANCH  11  15
ENDBRANCH   7  11
ENDBRANCH   6   8
ENDBRANCH   2   6
ENDBRANCH   1   3
BRANCH   1  70
ATOM     70  C   LYS A   9     -26.213  26.568 -42.308  0.00  0.00    +0.241 C 
ATOM     71  O   LYS A   9     -26.058  26.616 -41.089  0.00  0.00    -0.273 OA
ATOM     72  N   LEU A  10     -25.262  26.908 -43.169  0.00  0.00    -0.297 N 
ATOM     73  H   LEU A  10     -25.419  26.761 -44.187  0.00  0.00    +0.150 HD
BRANCH  72  74
ATOM     74  CA  LEU A  10     -24.004  27.482 -42.716  0.00  0.00    +0.149 C 
BRANCH  74  75
ATOM     75  C   LEU A  10     -24.190  28.936 -42.301  0.00  0.00    +0.241 C 
ATOM     76  N   VAL A  11     -23.575  29.296 -41.181  0.00  0.00    -0.297 N 
ATOM     77  H   VAL A  11     -23.140  28.556 -40.594  0.00  0.00    +0.150 HD
ATOM     78  O   LEU A  10     -24.880  29.704 -42.971  0.00  0.00    -0.273 OA
BRANCH  76  79
ATOM     79  CA  VAL A  11     -23.482  30.679 -40.738  0.00  0.00    +0.149 C 
BRANCH  79  80
ATOM     80  C   VAL A  11     -22.585  31.432 -41.726  0.00  0.00    +0.241 C 
ATOM     81  N   THR A  12     -22.805  32.736 -41.898  0.00  0.00    -0.295 N 
ATOM     82  H   THR A  12     -23.560  33.201 -41.354  0.00  0.00    +0.150 HD
ATOM     83  O   VAL A  11     -21.719  30.819 -42.350  0.00  0.00    -0.273 OA
BRANCH  81  84
ATOM     84  CA  THR A  12     -22.007  33.526 -42.835  0.00  0.00    +0.176 C 
BRANCH  84  85
ATOM     85  C   THR A  12     -20.515  33.440 -42.522  0.00  0.00    +0.243 C 
ATOM     86  O   THR A  12     -20.120  33.317 -41.363  0.00  0.00    -0.273 OA
ATOM     87  N   ASP A  13     -19.696  33.508 -43.566  0.00  0.00    -0.296 N 
ATOM     88  H   ASP A  13     -20.104  33.602 -44.518  0.00  0.00    +0.150 HD
BRANCH  87  89
ATOM     89  CA  ASP A  13     -18.243  33.455 -43.425  0.00  0.00    +0.160 C 
BRANCH  89  90
ATOM     90  C   ASP A  13     -17.690  34.532 -42.492  0.00  0.00    +0.241 C 
ATOM     91  O   ASP A  13     -16.874  34.238 -41.621  0.00  0.00    -0.273 OA
ATOM     92  N   GLU A  14     -18.128  35.775 -42.669  0.00  0.00    -0.297 N 
ATOM     93  H   GLU A  14     -18.888  35.964 -43.354  0.00  0.00    +0.150 HD
BRANCH  92  94
ATOM     94  CA  GLU A  14     -17.546  36.878 -41.905  0.00  0.00    +0.149 C 
BRANCH  94  95
ATOM     95  C   GLU A  14     -17.835  36.747 -40.412  0.00  0.00    +0.241 C 
ATOM     96  O   GLU A  14     -17.055  37.215 -39.585  0.00  0.00    -0.273 OA
ATOM     97  N   LEU A  15     -18.941  36.096 -40.063  0.00  0.00    -0.297 N 
ATOM     98  H   LEU A  15     -19.574  35.724 -40.799  0.00  0.00    +0.150 HD
BRANCH  97  99
ATOM     99  CA  LEU A  15     -19.274  35.899 -38.656  0.00  0.00    +0.149 C 
BRANCH  99 100
ATOM    100  C   LEU A  15     -18.367  34.853 -38.003  0.00  0.00    +0.241 C 
ATOM    101  O   LEU A  15     -17.852  35.076 -36.909  0.00  0.00    -0.273 OA
ATOM    102  N   VAL A  16     -18.162  33.717 -38.665  0.00  0.00    -0.297 N 
ATOM    103  H   VAL A  16     -18.605  33.569 -39.594  0.00  0.00    +0.150 HD
BRANCH 102 104
ATOM    104  CA  VAL A  16     -17.315  32.679 -38.085  0.00  0.00    +0.149 C 
BRANCH 104 105
ATOM    105  C   VAL A  16     -15.840  33.066 -38.151  0.00  0.00    +0.241 C 
ATOM    106  O   VAL A  16     -15.071  32.715 -37.258  0.00  0.00    -0.273 OA
ATOM    107  N   ILE A  17     -15.446  33.795 -39.193  0.00  0.00    -0.298 N 
ATOM    108  H   ILE A  17     -16.131  34.044 -39.934  0.00  0.00    +0.150 HD
BRANCH 107 109
ATOM    109  CA  ILE A  17     -14.062  34.249 -39.307  0.00  0.00    +0.137 C 
BRANCH 109 110
ATOM    110  C   ILE A  17     -13.715  35.155 -38.127  0.00  0.00    +0.227 C 
ATOM    111  O   ILE A  17     -12.645  35.029 -37.531  0.00  0.00    -0.286 OA
ENDBRANCH 109 110
BRANCH 109 112
ATOM    112  CB  ILE A  17     -13.804  34.990 -40.636  0.00  0.00    +0.026 C 
ATOM    113  CG2 ILE A  17     -12.498  35.773 -40.572  0.00  0.00    +0.002 C 
BRANCH 112 114
ATOM    114  CG1 ILE A  17     -13.753  33.996 -41.799  0.00  0.00    +0.002 C 
ATOM    115  CD1 ILE A  17     -13.840  34.647 -43.163  0.00  0.00    +0.000 C 
ENDBRANCH 112 114
ENDBRANCH 109 112
ENDBRANCH 107 109
ENDBRANCH 104 105
BRANCH 104 116
ATOM    116  CB  VAL A  16     -17.517  31.304 -38.768  0.00  0.00    +0.027 C 
ATOM    117  CG2 VAL A  16     -18.878  30.732 -38.414  0.00  0.00    +0.002 C 
ATOM    118  CG1 VAL A  16     -17.347  31.408 -40.271  0.00  0.00    +0.002 C 
ENDBRANCH 104 116
ENDBRANCH 102 104
ENDBRANCH  99 100
BRANCH  99 119
ATOM    119  CB  LEU A  15     -20.743  35.497 -38.493  0.00  0.00    +0.029 C 
BRANCH 119 120
ATOM    120  CG  LEU A  15     -21.263  35.490 -37.050  0.00  0.00    +0.002 C 
ATOM    121  CD2 LEU A  15     -20.981  36.819 -36.367  0.00  0.00    +0.000 C 
ATOM    122  CD1 LEU A  15     -22.752  35.178 -36.994  0.00  0.00    +0.000 C 
ENDBRANCH 119 120
ENDBRANCH  99 119
ENDBRANCH  97  99
ENDBRANCH  94  95
BRANCH  94 123
ATOM    123  CB  GLU A  14     -18.045  38.234 -42.426  0.00  0.00    +0.041 C 
BRANCH 123 124
ATOM    124  CG  GLU A  14     -19.516  38.502 -42.182  0.00  0.00    +0.116 C 
BRANCH 124 125
ATOM    125  CD  GLU A  14     -19.916  39.944 -42.456  0.00  0.00    +0.365 C 
ATOM    126  OE2 GLU A  14     -19.089  40.860 -42.246  0.00  0.00    -0.246 OA
ATOM    127  OE1 GLU A  14     -21.073  40.161 -42.866  0.00  0.00    -0.246 OA
ENDBRANCH 124 125
ENDBRANCH 123 124
ENDBRANCH  94 123
ENDBRANCH  92  94
ENDBRANCH  89  90
BRANCH  89 128
ATOM    128  CB  ASP A  13     -17.573  33.582 -44.793  0.00  0.00    +0.143 C 
BRANCH 128 129
ATOM    129  CG  ASP A  13     -17.830  32.383 -45.685  0.00  0.00    +0.367 C 
ATOM    130  OD2 ASP A  13     -17.962  31.258 -45.156  0.00  0.00    -0.246 OA
ATOM    131  OD1 ASP A  13     -17.896  32.569 -46.917  0.00  0.00    -0.246 OA
ENDBRANCH 128 129
ENDBRANCH  89 128
ENDBRANCH  87  89
ENDBRANCH  84  85
BRANCH  84 132
ATOM    132  CB  THR A  12     -22.419  35.017 -42.835  0.00  0.00    +0.137 C 
ATOM    133  CG2 THR A  12     -23.882  35.172 -43.226  0.00  0.00    +0.034 C 
BRANCH 132 134
ATOM    134  OG1 THR A  12     -22.211  35.575 -41.532  0.00  0.00    -0.382 OA
ATOM    135  HG1 THR A  12     -22.476  36.529 -41.537  0.00  0.00    +0.210 HD
ENDBRANCH 132 134
ENDBRANCH  84 132
ENDBRANCH  81  84
ENDBRANCH  79  80
BRANCH  79 136
ATOM    136  CB  VAL A  11     -22.927  30.738 -39.293  0.00  0.00    +0.027 C 
ATOM    137  CG2 VAL A  11     -23.954  30.179 -38.315  0.00  0.00    +0.002 C 
ATOM    138  CG1 VAL A  11     -22.502  32.138 -38.901  0.00  0.00    +0.002 C 
ENDBRANCH  79 136
ENDBRANCH  76  79
ENDBRANCH  74  75
BRANCH  74 139
ATOM    139  CB  LEU A  10     -22.937  27.388 -43.809  0.00  0.00    +0.029 C 
BRANCH 139 140
ATOM    140  CG  LEU A  10     -22.401  25.998 -44.152  0.00  0.00    +0.002 C 
ATOM    141  CD2 LEU A  10     -21.858  25.308 -42.909  0.00  0.00    +0.000 C 
ATOM    142  CD1 LEU A  10     -21.330  26.098 -45.228  0.00  0.00    +0.000 C 
ENDBRANCH 139 140
ENDBRANCH  74 139
ENDBRANCH  72  74
ENDBRANCH   1  70
BRANCH   1 143
ATOM    143  CB  LYS A   9     -28.314  27.336 -43.407  0.00  0.00    +0.029 C 
BRANCH 143 144
ATOM    144  CG  LYS A   9     -29.594  27.003 -44.146  0.00  0.00    +0.000 C 
BRANCH 144 145
ATOM    145  CD  LYS A   9     -29.304  26.277 -45.448  0.00  0.00    -0.024 C 
BRANCH 145 146
ATOM    146  CE  LYS A   9     -30.589  25.945 -46.190  0.00  0.00    -0.086 C 
BRANCH 146 147
ATOM    147  NZ  LYS A   9     -30.317  25.214 -47.457  0.00  0.00    +0.380 N 
ATOM    148  HZ1 LYS A   9     -29.822  24.325 -47.243  0.00  0.00    -0.089 HD
ATOM    149  HZ2 LYS A   9     -31.217  25.005 -47.935  0.00  0.00    -0.089 HD
ATOM    150  HZ3 LYS A   9     -29.723  25.803 -48.075  0.00  0.00    -0.089 HD
ENDBRANCH 146 147
ENDBRANCH 145 146
ENDBRANCH 144 145
ENDBRANCH 143 144
ENDBRANCH   1 143
TORSDOF 68
REMARK  Name = ../refined-set-2016/4x8o/4x8o_pocket.pdb
REMARK  358 active torsions:
REMARK  status: ('A' for Active; 'I' for Inactive)
REMARK    1  A    between atoms: _1  and  _3
REMARK    2  A    between atoms: _3  and  _4
REMARK    3  A    between atoms: _3  and  _6
REMARK    4  A    between atoms: _6  and  _7
REMARK    5  A    between atoms: _10  and  _12
REMARK    6  A    between atoms: _12  and  _13
REMARK    7  A    between atoms: _12  and  _15
REMARK    8  A    between atoms: _15  and  _16
REMARK    9  A    between atoms: _19  and  _21
REMARK   10  A    between atoms: _21  and  _22
REMARK   11  A    between atoms: _24  and  _26
REMARK   12  A    between atoms: _26  and  _27
REMARK   13  A    between atoms: _31  and  _32
REMARK   14  A    between atoms: _37  and  _39
REMARK   15  A    between atoms: _39  and  _40
REMARK   16  A    between atoms: _42  and  _44
REMARK   17  A    between atoms: _44  and  _45
REMARK   18  A    between atoms: _48  and  _50
REMARK   19  A    between atoms: _50  and  _51
REMARK   20  A    between atoms: _53  and  _55
REMARK   21  A    between atoms: _55  and  _56
REMARK   22  A    between atoms: _55  and  _58
REMARK   23  A    between atoms: _58  and  _59
REMARK   24  A    between atoms: _59  and  _60
REMARK   25  A    between atoms: _60  and  _61
REMARK   26  A    between atoms: _61  and  _62
REMARK   27  A    between atoms: _66  and  _68
REMARK   28  A    between atoms: _68  and  _69
REMARK   29  A    between atoms: _71  and  _73
REMARK   30  A    between atoms: _73  and  _74
REMARK   31  A    between atoms: _73  and  _76
REMARK   32  A    between atoms: _76  and  _77
REMARK   33  A    between atoms: _80  and  _82
REMARK   34  A    between atoms: _82  and  _83
REMARK   35  A    between atoms: _82  and  _85
REMARK   36  A    between atoms: _85  and  _86
REMARK   37  A    between atoms: _86  and  _87
REMARK   38  A    between atoms: _92  and  _94
REMARK   39  A    between atoms: _94  and  _95
REMARK   40  A    between atoms: _98  and  _100
REMARK   41  A    between atoms: _100  and  _101
REMARK   42  A    between atoms: _100  and  _103
REMARK   43  A    between atoms: _103  and  _104
REMARK   44  A    between atoms: _104  and  _105
REMARK   45  A    between atoms: _110  and  _112
REMARK   46  A    between atoms: _112  and  _113
REMARK   47  A    between atoms: _112  and  _115
REMARK   48  A    between atoms: _115  and  _116
REMARK   49  A    between atoms: _122  and  _124
REMARK   50  A    between atoms: _124  and  _125
REMARK   51  A    between atoms: _124  and  _127
REMARK   52  A    between atoms: _127  and  _128
REMARK   53  A    between atoms: _128  and  _129
REMARK   54  A    between atoms: _134  and  _136
REMARK   55  A    between atoms: _136  and  _137
REMARK   56  A    between atoms: _136  and  _139
REMARK   57  A    between atoms: _139  and  _140
REMARK   58  A    between atoms: _142  and  _144
REMARK   59  A    between atoms: _144  and  _145
REMARK   60  A    between atoms: _144  and  _147
REMARK   61  A    between atoms: _147  and  _148
REMARK   62  A    between atoms: _151  and  _153
REMARK   63  A    between atoms: _153  and  _154
REMARK   64  A    between atoms: _156  and  _158
REMARK   65  A    between atoms: _158  and  _159
REMARK   66  A    between atoms: _158  and  _161
REMARK   67  A    between atoms: _161  and  _162
REMARK   68  A    between atoms: _165  and  _167
REMARK   69  A    between atoms: _167  and  _168
REMARK   70  A    between atoms: _167  and  _170
REMARK   71  A    between atoms: _170  and  _171
REMARK   72  A    between atoms: _171  and  _172
REMARK   73  A    between atoms: _174  and  _176
REMARK   74  A    between atoms: _176  and  _177
REMARK   75  A    between atoms: _176  and  _179
REMARK   76  A    between atoms: _179  and  _180
REMARK   77  A    between atoms: _183  and  _185
REMARK   78  A    between atoms: _185  and  _186
REMARK   79  A    between atoms: _185  and  _188
REMARK   80  A    between atoms: _188  and  _189
REMARK   81  A    between atoms: _189  and  _190
REMARK   82  A    between atoms: _190  and  _191
REMARK   83  A    between atoms: _200  and  _202
REMARK   84  A    between atoms: _202  and  _203
REMARK   85  A    between atoms: _206  and  _208
REMARK   86  A    between atoms: _208  and  _209
REMARK   87  A    between atoms: _208  and  _211
REMARK   88  A    between atoms: _211  and  _212
REMARK   89  A    between atoms: _212  and  _213
REMARK   90  A    between atoms: _213  and  _214
REMARK   91  A    between atoms: _214  and  _215
REMARK   92  A    between atoms: _219  and  _221
REMARK   93  A    between atoms: _221  and  _222
REMARK   94  A    between atoms: _221  and  _224
REMARK   95  A    between atoms: _224  and  _225
REMARK   96  A    between atoms: _228  and  _230
REMARK   97  A    between atoms: _230  and  _231
REMARK   98  A    between atoms: _230  and  _233
REMARK   99  A    between atoms: _233  and  _234
REMARK  100  A    between atoms: _237  and  _239
REMARK  101  A    between atoms: _239  and  _240
REMARK  102  A    between atoms: _239  and  _242
REMARK  103  A    between atoms: _242  and  _243
REMARK  104  A    between atoms: _243  and  _244
REMARK  105  A    between atoms: _246  and  _248
REMARK  106  A    between atoms: _248  and  _249
REMARK  107  A    between atoms: _248  and  _251
REMARK  108  A    between atoms: _251  and  _252
REMARK  109  A    between atoms: _255  and  _257
REMARK  110  A    between atoms: _257  and  _258
REMARK  111  A    between atoms: _261  and  _263
REMARK  112  A    between atoms: _263  and  _264
REMARK  113  A    between atoms: _266  and  _268
REMARK  114  A    between atoms: _268  and  _269
REMARK  115  A    between atoms: _268  and  _271
REMARK  116  A    between atoms: _271  and  _272
REMARK  117  A    between atoms: _272  and  _273
REMARK  118  A    between atoms: _273  and  _274
REMARK  119  A    between atoms: _274  and  _275
REMARK  120  A    between atoms: _279  and  _281
REMARK  121  A    between atoms: _281  and  _282
REMARK  122  A    between atoms: _281  and  _284
REMARK  123  A    between atoms: _284  and  _285
REMARK  124  A    between atoms: _288  and  _290
REMARK  125  A    between atoms: _290  and  _291
REMARK  126  A    between atoms: _290  and  _293
REMARK  127  A    between atoms: _296  and  _298
REMARK  128  A    between atoms: _298  and  _299
REMARK  129  A    between atoms: _298  and  _301
REMARK  130  A    between atoms: _301  and  _302
REMARK  131  A    between atoms: _305  and  _307
REMARK  132  A    between atoms: _307  and  _308
REMARK  133  A    between atoms: _307  and  _310
REMARK  134  A    between atoms: _310  and  _311
REMARK  135  A    between atoms: _314  and  _316
REMARK  136  A    between atoms: _316  and  _317
REMARK  137  A    between atoms: _316  and  _319
REMARK  138  A    between atoms: _319  and  _320
REMARK  139  A    between atoms: _320  and  _321
REMARK  140  A    between atoms: _324  and  _326
REMARK  141  A    between atoms: _326  and  _327
REMARK  142  A    between atoms: _326  and  _329
REMARK  143  A    between atoms: _329  and  _330
REMARK  144  A    between atoms: _333  and  _335
REMARK  145  A    between atoms: _335  and  _336
REMARK  146  A    between atoms: _335  and  _338
REMARK  147  A    between atoms: _341  and  _343
REMARK  148  A    between atoms: _343  and  _344
REMARK  149  A    between atoms: _343  and  _346
REMARK  150  A    between atoms: _346  and  _347
REMARK  151  A    between atoms: _350  and  _352
REMARK  152  A    between atoms: _352  and  _353
REMARK  153  A    between atoms: _352  and  _355
REMARK  154  A    between atoms: _358  and  _360
REMARK  155  A    between atoms: _360  and  _361
REMARK  156  A    between atoms: _360  and  _363
REMARK  157  A    between atoms: _363  and  _364
REMARK  158  A    between atoms: _367  and  _369
REMARK  159  A    between atoms: _369  and  _370
REMARK  160  A    between atoms: _372  and  _374
REMARK  161  A    between atoms: _374  and  _375
REMARK  162  A    between atoms: _374  and  _377
REMARK  163  A    between atoms: _377  and  _378
REMARK  164  A    between atoms: _385  and  _386
REMARK  165  A    between atoms: _391  and  _393
REMARK  166  A    between atoms: _393  and  _394
REMARK  167  A    between atoms: _393  and  _396
REMARK  168  A    between atoms: _396  and  _397
REMARK  169  A    between atoms: _397  and  _398
REMARK  170  A    between atoms: _398  and  _399
REMARK  171  A    between atoms: _408  and  _410
REMARK  172  A    between atoms: _410  and  _411
REMARK  173  A    between atoms: _410  and  _413
REMARK  174  A    between atoms: _413  and  _414
REMARK  175  A    between atoms: _417  and  _419
REMARK  176  A    between atoms: _419  and  _420
REMARK  177  A    between atoms: _419  and  _422
REMARK  178  A    between atoms: _422  and  _423
REMARK  179  A    between atoms: _423  and  _424
REMARK  180  A    between atoms: _429  and  _431
REMARK  181  A    between atoms: _431  and  _432
REMARK  182  A    between atoms: _431  and  _434
REMARK  183  A    between atoms: _434  and  _435
REMARK  184  A    between atoms: _441  and  _443
REMARK  185  A    between atoms: _443  and  _444
REMARK  186  A    between atoms: _443  and  _446
REMARK  187  A    between atoms: _449  and  _451
REMARK  188  A    between atoms: _451  and  _452
REMARK  189  A    between atoms: _451  and  _454
REMARK  190  A    between atoms: _454  and  _455
REMARK  191  A    between atoms: _458  and  _460
REMARK  192  A    between atoms: _460  and  _461
REMARK  193  A    between atoms: _460  and  _463
REMARK  194  A    between atoms: _463  and  _464
REMARK  195  A    between atoms: _467  and  _469
REMARK  196  A    between atoms: _469  and  _470
REMARK  197  A    between atoms: _469  and  _472
REMARK  198  A    between atoms: _475  and  _477
REMARK  199  A    between atoms: _477  and  _478
REMARK  200  A    between atoms: _477  and  _480
REMARK  201  A    between atoms: _480  and  _481
REMARK  202  A    between atoms: _484  and  _486
REMARK  203  A    between atoms: _486  and  _487
REMARK  204  A    between atoms: _486  and  _489
REMARK  205  A    between atoms: _489  and  _490
REMARK  206  A    between atoms: _490  and  _491
REMARK  207  A    between atoms: _491  and  _492
REMARK  208  A    between atoms: _501  and  _503
REMARK  209  A    between atoms: _503  and  _504
REMARK  210  A    between atoms: _503  and  _506
REMARK  211  A    between atoms: _506  and  _507
REMARK  212  A    between atoms: _510  and  _512
REMARK  213  A    between atoms: _512  and  _513
REMARK  214  A    between atoms: _512  and  _515
REMARK  215  A    between atoms: _518  and  _520
REMARK  216  A    between atoms: _520  and  _521
REMARK  217  A    between atoms: _523  and  _525
REMARK  218  A    between atoms: _525  and  _526
REMARK  219  A    between atoms: _525  and  _528
REMARK  220  A    between atoms: _528  and  _529
REMARK  221  A    between atoms: _529  and  _530
REMARK  222  A    between atoms: _530  and  _531
REMARK  223  A    between atoms: _540  and  _542
REMARK  224  A    between atoms: _542  and  _543
REMARK  225  A    between atoms: _542  and  _545
REMARK  226  A    between atoms: _545  and  _546
REMARK  227  A    between atoms: _546  and  _547
REMARK  228  A    between atoms: _547  and  _548
REMARK  229  A    between atoms: _557  and  _559
REMARK  230  A    between atoms: _559  and  _560
REMARK  231  A    between atoms: _559  and  _562
REMARK  232  A    between atoms: _565  and  _567
REMARK  233  A    between atoms: _567  and  _568
REMARK  234  A    between atoms: _570  and  _572
REMARK  235  A    between atoms: _572  and  _573
REMARK  236  A    between atoms: _572  and  _575
REMARK  237  A    between atoms: _575  and  _576
REMARK  238  A    between atoms: _576  and  _577
REMARK  239  A    between atoms: _577  and  _578
REMARK  240  A    between atoms: _587  and  _589
REMARK  241  A    between atoms: _589  and  _590
REMARK  242  A    between atoms: _589  and  _592
REMARK  243  A    between atoms: _595  and  _597
REMARK  244  A    between atoms: _597  and  _598
REMARK  245  A    between atoms: _597  and  _600
REMARK  246  A    between atoms: _600  and  _601
REMARK  247  A    between atoms: _606  and  _607
REMARK  248  A    between atoms: _609  and  _611
REMARK  249  A    between atoms: _611  and  _612
REMARK  250  A    between atoms: _611  and  _614
REMARK  251  A    between atoms: _614  and  _615
REMARK  252  A    between atoms: _620  and  _622
REMARK  253  A    between atoms: _622  and  _623
REMARK  254  A    between atoms: _622  and  _625
REMARK  255  A    between atoms: _628  and  _630
REMARK  256  A    between atoms: _630  and  _631
REMARK  257  A    between atoms: _630  and  _633
REMARK  258  A    between atoms: _633  and  _634
REMARK  259  A    between atoms: _634  and  _635
REMARK  260  A    between atoms: _635  and  _636
REMARK  261  A    between atoms: _636  and  _637
REMARK  262  A    between atoms: _641  and  _643
REMARK  263  A    between atoms: _643  and  _644
REMARK  264  A    between atoms: _643  and  _646
REMARK  265  A    between atoms: _646  and  _647
REMARK  266  A    between atoms: _653  and  _655
REMARK  267  A    between atoms: _655  and  _656
REMARK  268  A    between atoms: _655  and  _658
REMARK  269  A    between atoms: _658  and  _659
REMARK  270  A    between atoms: _665  and  _666
REMARK  271  A    between atoms: _671  and  _673
REMARK  272  A    between atoms: _673  and  _674
REMARK  273  A    between atoms: _673  and  _676
REMARK  274  A    between atoms: _676  and  _677
REMARK  275  A    between atoms: _677  and  _678
REMARK  276  A    between atoms: _678  and  _679
REMARK  277  A    between atoms: _688  and  _690
REMARK  278  A    between atoms: _690  and  _691
REMARK  279  A    between atoms: _690  and  _693
REMARK  280  A    between atoms: _693  and  _694
REMARK  281  A    between atoms: _697  and  _699
REMARK  282  A    between atoms: _699  and  _700
REMARK  283  A    between atoms: _699  and  _702
REMARK  284  A    between atoms: _702  and  _703
REMARK  285  A    between atoms: _706  and  _708
REMARK  286  A    between atoms: _708  and  _709
REMARK  287  A    between atoms: _708  and  _711
REMARK  288  A    between atoms: _711  and  _712
REMARK  289  A    between atoms: _715  and  _717
REMARK  290  A    between atoms: _717  and  _718
REMARK  291  A    between atoms: _717  and  _720
REMARK  292  A    between atoms: _723  and  _725
REMARK  293  A    between atoms: _725  and  _726
REMARK  294  A    between atoms: _725  and  _728
REMARK  295  A    between atoms: _728  and  _729
REMARK  296  A    between atoms: _729  and  _730
REMARK  297  A    between atoms: _730  and  _731
REMARK  298  A    between atoms: _731  and  _732
REMARK  299  A    between atoms: _736  and  _738
REMARK  300  A    between atoms: _738  and  _739
REMARK  301  A    between atoms: _738  and  _741
REMARK  302  A    between atoms: _741  and  _742
REMARK  303  A    between atoms: _742  and  _743
REMARK  304  A    between atoms: _743  and  _744
REMARK  305  A    between atoms: _753  and  _755
REMARK  306  A    between atoms: _755  and  _756
REMARK  307  A    between atoms: _755  and  _758
REMARK  308  A    between atoms: _758  and  _759
REMARK  309  A    between atoms: _762  and  _764
REMARK  310  A    between atoms: _764  and  _765
REMARK  311  A    between atoms: _764  and  _767
REMARK  312  A    between atoms: _767  and  _768
REMARK  313  A    between atoms: _768  and  _769
REMARK  314  A    between atoms: _772  and  _774
REMARK  315  A    between atoms: _774  and  _775
REMARK  316  A    between atoms: _774  and  _777
REMARK  317  A    between atoms: _777  and  _778
REMARK  318  A    between atoms: _788  and  _790
REMARK  319  A    between atoms: _790  and  _791
REMARK  320  A    between atoms: _790  and  _793
REMARK  321  A    between atoms: _793  and  _794
REMARK  322  A    between atoms: _797  and  _799
REMARK  323  A    between atoms: _799  and  _800
REMARK  324  A    between atoms: _799  and  _802
REMARK  325  A    between atoms: _802  and  _803
REMARK  326  A    between atoms: _806  and  _808
REMARK  327  A    between atoms: _808  and  _809
REMARK  328  A    between atoms: _811  and  _813
REMARK  329  A    between atoms: _813  and  _814
REMARK  330  A    between atoms: _813  and  _816
REMARK  331  A    between atoms: _816  and  _817
REMARK  332  A    between atoms: _820  and  _822
REMARK  333  A    between atoms: _822  and  _823
REMARK  334  A    between atoms: _822  and  _825
REMARK  335  A    between atoms: _825  and  _826
REMARK  336  A    between atoms: _826  and  _827
REMARK  337  A    between atoms: _827  and  _828
REMARK  338  A    between atoms: _828  and  _829
REMARK  339  A    between atoms: _834  and  _835
REMARK  340  A    between atoms: _840  and  _842
REMARK  341  A    between atoms: _842  and  _843
REMARK  342  A    between atoms: _842  and  _845
REMARK  343  A    between atoms: _848  and  _850
REMARK  344  A    between atoms: _850  and  _851
REMARK  345  A    between atoms: _854  and  _856
REMARK  346  A    between atoms: _856  and  _857
REMARK  347  A    between atoms: _856  and  _859
REMARK  348  A    between atoms: _859  and  _860
REMARK  349  A    between atoms: _860  and  _861
REMARK  350  A    between atoms: _864  and  _866
REMARK  351  A    between atoms: _866  and  _867
REMARK  352  A    between atoms: _866  and  _869
REMARK  353  A    between atoms: _872  and  _874
REMARK  354  A    between atoms: _874  and  _875
REMARK  355  A    between atoms: _874  and  _877
REMARK  356  A    between atoms: _877  and  _878
REMARK  357  A    between atoms: _878  and  _879
REMARK  358  A    between atoms: _879  and  _880
REMARK                            x       y       z     vdW  Elec       q    Type
REMARK                         _______ _______ _______ _____ _____    ______ ____
ROOT
ATOM      1  CA  VAL A   1     -12.018  32.375 -34.901  0.00  0.00    +0.133 C 
ENDROOT
BRANCH   1   2
ATOM      2  CB  VAL A   1     -11.787  31.631 -36.233  0.00  0.00    +0.023 C 
ATOM      3  CG2 VAL A   1     -10.380  31.060 -36.294  0.00  0.00    +0.002 C 
ATOM      4  CG1 VAL A   1     -12.818  30.528 -36.407  0.00  0.00    +0.002 C 
ENDBRANCH   1   2
BRANCH   1   5
ATOM      5  N   VAL A   1     -13.280  33.105 -34.910  0.00  0.00    -0.239 NA
ATOM      6  H   VAL A   1     -13.793  33.225 -35.807  0.00  0.00    +0.142 HD
ENDBRANCH   1   5
BRANCH   1   7
ATOM      7  C   VAL A   1     -10.845  33.315 -34.625  0.00  0.00    +0.224 C 
ATOM      8  O   VAL A   1      -9.956  32.992 -33.834  0.00  0.00    -0.287 OA
ENDBRANCH   1   7
TORSDOF 3
REMARK  Name = ../refined-set-2016/4x8o/4x8o_pocket.pdb
REMARK  358 active torsions:
REMARK  status: ('A' for Active; 'I' for Inactive)
REMARK    1  A    between atoms: _1  and  _3
REMARK    2  A    between atoms: _3  and  _4
REMARK    3  A    between atoms: _3  and  _6
REMARK    4  A    between atoms: _6  and  _7
REMARK    5  A    between atoms: _10  and  _12
REMARK    6  A    between atoms: _12  and  _13
REMARK    7  A    between atoms: _12  and  _15
REMARK    8  A    between atoms: _15  and  _16
REMARK    9  A    between atoms: _19  and  _21
REMARK   10  A    between atoms: _21  and  _22
REMARK   11  A    between atoms: _24  and  _26
REMARK   12  A    between atoms: _26  and  _27
REMARK   13  A    between atoms: _31  and  _32
REMARK   14  A    between atoms: _37  and  _39
REMARK   15  A    between atoms: _39  and  _40
REMARK   16  A    between atoms: _42  and  _44
REMARK   17  A    between atoms: _44  and  _45
REMARK   18  A    between atoms: _48  and  _50
REMARK   19  A    between atoms: _50  and  _51
REMARK   20  A    between atoms: _53  and  _55
REMARK   21  A    between atoms: _55  and  _56
REMARK   22  A    between atoms: _55  and  _58
REMARK   23  A    between atoms: _58  and  _59
REMARK   24  A    between atoms: _59  and  _60
REMARK   25  A    between atoms: _60  and  _61
REMARK   26  A    between atoms: _61  and  _62
REMARK   27  A    between atoms: _66  and  _68
REMARK   28  A    between atoms: _68  and  _69
REMARK   29  A    between atoms: _71  and  _73
REMARK   30  A    between atoms: _73  and  _74
REMARK   31  A    between atoms: _73  and  _76
REMARK   32  A    between atoms: _76  and  _77
REMARK   33  A    between atoms: _80  and  _82
REMARK   34  A    between atoms: _82  and  _83
REMARK   35  A    between atoms: _82  and  _85
REMARK   36  A    between atoms: _85  and  _86
REMARK   37  A    between atoms: _86  and  _87
REMARK   38  A    between atoms: _92  and  _94
REMARK   39  A    between atoms: _94  and  _95
REMARK   40  A    between atoms: _98  and  _100
REMARK   41  A    between atoms: _100  and  _101
REMARK   42  A    between atoms: _100  and  _103
REMARK   43  A    between atoms: _103  and  _104
REMARK   44  A    between atoms: _104  and  _105
REMARK   45  A    between atoms: _110  and  _112
REMARK   46  A    between atoms: _112  and  _113
REMARK   47  A    between atoms: _112  and  _115
REMARK   48  A    between atoms: _115  and  _116
REMARK   49  A    between atoms: _122  and  _124
REMARK   50  A    between atoms: _124  and  _125
REMARK   51  A    between atoms: _124  and  _127
REMARK   52  A    between atoms: _127  and  _128
REMARK   53  A    between atoms: _128  and  _129
REMARK   54  A    between atoms: _134  and  _136
REMARK   55  A    between atoms: _136  and  _137
REMARK   56  A    between atoms: _136  and  _139
REMARK   57  A    between atoms: _139  and  _140
REMARK   58  A    between atoms: _142  and  _144
REMARK   59  A    between atoms: _144  and  _145
REMARK   60  A    between atoms: _144  and  _147
REMARK   61  A    between atoms: _147  and  _148
REMARK   62  A    between atoms: _151  and  _153
REMARK   63  A    between atoms: _153  and  _154
REMARK   64  A    between atoms: _156  and  _158
REMARK   65  A    between atoms: _158  and  _159
REMARK   66  A    between atoms: _158  and  _161
REMARK   67  A    between atoms: _161  and  _162
REMARK   68  A    between atoms: _165  and  _167
REMARK   69  A    between atoms: _167  and  _168
REMARK   70  A    between atoms: _167  and  _170
REMARK   71  A    between atoms: _170  and  _171
REMARK   72  A    between atoms: _171  and  _172
REMARK   73  A    between atoms: _174  and  _176
REMARK   74  A    between atoms: _176  and  _177
REMARK   75  A    between atoms: _176  and  _179
REMARK   76  A    between atoms: _179  and  _180
REMARK   77  A    between atoms: _183  and  _185
REMARK   78  A    between atoms: _185  and  _186
REMARK   79  A    between atoms: _185  and  _188
REMARK   80  A    between atoms: _188  and  _189
REMARK   81  A    between atoms: _189  and  _190
REMARK   82  A    between atoms: _190  and  _191
REMARK   83  A    between atoms: _200  and  _202
REMARK   84  A    between atoms: _202  and  _203
REMARK   85  A    between atoms: _206  and  _208
REMARK   86  A    between atoms: _208  and  _209
REMARK   87  A    between atoms: _208  and  _211
REMARK   88  A    between atoms: _211  and  _212
REMARK   89  A    between atoms: _212  and  _213
REMARK   90  A    between atoms: _213  and  _214
REMARK   91  A    between atoms: _214  and  _215
REMARK   92  A    between atoms: _219  and  _221
REMARK   93  A    between atoms: _221  and  _222
REMARK   94  A    between atoms: _221  and  _224
REMARK   95  A    between atoms: _224  and  _225
REMARK   96  A    between atoms: _228  and  _230
REMARK   97  A    between atoms: _230  and  _231
REMARK   98  A    between atoms: _230  and  _233
REMARK   99  A    between atoms: _233  and  _234
REMARK  100  A    between atoms: _237  and  _239
REMARK  101  A    between atoms: _239  and  _240
REMARK  102  A    between atoms: _239  and  _242
REMARK  103  A    between atoms: _242  and  _243
REMARK  104  A    between atoms: _243  and  _244
REMARK  105  A    between atoms: _246  and  _248
REMARK  106  A    between atoms: _248  and  _249
REMARK  107  A    between atoms: _248  and  _251
REMARK  108  A    between atoms: _251  and  _252
REMARK  109  A    between atoms: _255  and  _257
REMARK  110  A    between atoms: _257  and  _258
REMARK  111  A    between atoms: _261  and  _263
REMARK  112  A    between atoms: _263  and  _264
REMARK  113  A    between atoms: _266  and  _268
REMARK  114  A    between atoms: _268  and  _269
REMARK  115  A    between atoms: _268  and  _271
REMARK  116  A    between atoms: _271  and  _272
REMARK  117  A    between atoms: _272  and  _273
REMARK  118  A    between atoms: _273  and  _274
REMARK  119  A    between atoms: _274  and  _275
REMARK  120  A    between atoms: _279  and  _281
REMARK  121  A    between atoms: _281  and  _282
REMARK  122  A    between atoms: _281  and  _284
REMARK  123  A    between atoms: _284  and  _285
REMARK  124  A    between atoms: _288  and  _290
REMARK  125  A    between atoms: _290  and  _291
REMARK  126  A    between atoms: _290  and  _293
REMARK  127  A    between atoms: _296  and  _298
REMARK  128  A    between atoms: _298  and  _299
REMARK  129  A    between atoms: _298  and  _301
REMARK  130  A    between atoms: _301  and  _302
REMARK  131  A    between atoms: _305  and  _307
REMARK  132  A    between atoms: _307  and  _308
REMARK  133  A    between atoms: _307  and  _310
REMARK  134  A    between atoms: _310  and  _311
REMARK  135  A    between atoms: _314  and  _316
REMARK  136  A    between atoms: _316  and  _317
REMARK  137  A    between atoms: _316  and  _319
REMARK  138  A    between atoms: _319  and  _320
REMARK  139  A    between atoms: _320  and  _321
REMARK  140  A    between atoms: _324  and  _326
REMARK  141  A    between atoms: _326  and  _327
REMARK  142  A    between atoms: _326  and  _329
REMARK  143  A    between atoms: _329  and  _330
REMARK  144  A    between atoms: _333  and  _335
REMARK  145  A    between atoms: _335  and  _336
REMARK  146  A    between atoms: _335  and  _338
REMARK  147  A    between atoms: _341  and  _343
REMARK  148  A    between atoms: _343  and  _344
REMARK  149  A    between atoms: _343  and  _346
REMARK  150  A    between atoms: _346  and  _347
REMARK  151  A    between atoms: _350  and  _352
REMARK  152  A    between atoms: _352  and  _353
REMARK  153  A    between atoms: _352  and  _355
REMARK  154  A    between atoms: _358  and  _360
REMARK  155  A    between atoms: _360  and  _361
REMARK  156  A    between atoms: _360  and  _363
REMARK  157  A    between atoms: _363  and  _364
REMARK  158  A    between atoms: _367  and  _369
REMARK  159  A    between atoms: _369  and  _370
REMARK  160  A    between atoms: _372  and  _374
REMARK  161  A    between atoms: _374  and  _375
REMARK  162  A    between atoms: _374  and  _377
REMARK  163  A    between atoms: _377  and  _378
REMARK  164  A    between atoms: _385  and  _386
REMARK  165  A    between atoms: _391  and  _393
REMARK  166  A    between atoms: _393  and  _394
REMARK  167  A    between atoms: _393  and  _396
REMARK  168  A    between atoms: _396  and  _397
REMARK  169  A    between atoms: _397  and  _398
REMARK  170  A    between atoms: _398  and  _399
REMARK  171  A    between atoms: _408  and  _410
REMARK  172  A    between atoms: _410  and  _411
REMARK  173  A    between atoms: _410  and  _413
REMARK  174  A    between atoms: _413  and  _414
REMARK  175  A    between atoms: _417  and  _419
REMARK  176  A    between atoms: _419  and  _420
REMARK  177  A    between atoms: _419  and  _422
REMARK  178  A    between atoms: _422  and  _423
REMARK  179  A    between atoms: _423  and  _424
REMARK  180  A    between atoms: _429  and  _431
REMARK  181  A    between atoms: _431  and  _432
REMARK  182  A    between atoms: _431  and  _434
REMARK  183  A    between atoms: _434  and  _435
REMARK  184  A    between atoms: _441  and  _443
REMARK  185  A    between atoms: _443  and  _444
REMARK  186  A    between atoms: _443  and  _446
REMARK  187  A    between atoms: _449  and  _451
REMARK  188  A    between atoms: _451  and  _452
REMARK  189  A    between atoms: _451  and  _454
REMARK  190  A    between atoms: _454  and  _455
REMARK  191  A    between atoms: _458  and  _460
REMARK  192  A    between atoms: _460  and  _461
REMARK  193  A    between atoms: _460  and  _463
REMARK  194  A    between atoms: _463  and  _464
REMARK  195  A    between atoms: _467  and  _469
REMARK  196  A    between atoms: _469  and  _470
REMARK  197  A    between atoms: _469  and  _472
REMARK  198  A    between atoms: _475  and  _477
REMARK  199  A    between atoms: _477  and  _478
REMARK  200  A    between atoms: _477  and  _480
REMARK  201  A    between atoms: _480  and  _481
REMARK  202  A    between atoms: _484  and  _486
REMARK  203  A    between atoms: _486  and  _487
REMARK  204  A    between atoms: _486  and  _489
REMARK  205  A    between atoms: _489  and  _490
REMARK  206  A    between atoms: _490  and  _491
REMARK  207  A    between atoms: _491  and  _492
REMARK  208  A    between atoms: _501  and  _503
REMARK  209  A    between atoms: _503  and  _504
REMARK  210  A    between atoms: _503  and  _506
REMARK  211  A    between atoms: _506  and  _507
REMARK  212  A    between atoms: _510  and  _512
REMARK  213  A    between atoms: _512  and  _513
REMARK  214  A    between atoms: _512  and  _515
REMARK  215  A    between atoms: _518  and  _520
REMARK  216  A    between atoms: _520  and  _521
REMARK  217  A    between atoms: _523  and  _525
REMARK  218  A    between atoms: _525  and  _526
REMARK  219  A    between atoms: _525  and  _528
REMARK  220  A    between atoms: _528  and  _529
REMARK  221  A    between atoms: _529  and  _530
REMARK  222  A    between atoms: _530  and  _531
REMARK  223  A    between atoms: _540  and  _542
REMARK  224  A    between atoms: _542  and  _543
REMARK  225  A    between atoms: _542  and  _545
REMARK  226  A    between atoms: _545  and  _546
REMARK  227  A    between atoms: _546  and  _547
REMARK  228  A    between atoms: _547  and  _548
REMARK  229  A    between atoms: _557  and  _559
REMARK  230  A    between atoms: _559  and  _560
REMARK  231  A    between atoms: _559  and  _562
REMARK  232  A    between atoms: _565  and  _567
REMARK  233  A    between atoms: _567  and  _568
REMARK  234  A    between atoms: _570  and  _572
REMARK  235  A    between atoms: _572  and  _573
REMARK  236  A    between atoms: _572  and  _575
REMARK  237  A    between atoms: _575  and  _576
REMARK  238  A    between atoms: _576  and  _577
REMARK  239  A    between atoms: _577  and  _578
REMARK  240  A    between atoms: _587  and  _589
REMARK  241  A    between atoms: _589  and  _590
REMARK  242  A    between atoms: _589  and  _592
REMARK  243  A    between atoms: _595  and  _597
REMARK  244  A    between atoms: _597  and  _598
REMARK  245  A    between atoms: _597  and  _600
REMARK  246  A    between atoms: _600  and  _601
REMARK  247  A    between atoms: _606  and  _607
REMARK  248  A    between atoms: _609  and  _611
REMARK  249  A    between atoms: _611  and  _612
REMARK  250  A    between atoms: _611  and  _614
REMARK  251  A    between atoms: _614  and  _615
REMARK  252  A    between atoms: _620  and  _622
REMARK  253  A    between atoms: _622  and  _623
REMARK  254  A    between atoms: _622  and  _625
REMARK  255  A    between atoms: _628  and  _630
REMARK  256  A    between atoms: _630  and  _631
REMARK  257  A    between atoms: _630  and  _633
REMARK  258  A    between atoms: _633  and  _634
REMARK  259  A    between atoms: _634  and  _635
REMARK  260  A    between atoms: _635  and  _636
REMARK  261  A    between atoms: _636  and  _637
REMARK  262  A    between atoms: _641  and  _643
REMARK  263  A    between atoms: _643  and  _644
REMARK  264  A    between atoms: _643  and  _646
REMARK  265  A    between atoms: _646  and  _647
REMARK  266  A    between atoms: _653  and  _655
REMARK  267  A    between atoms: _655  and  _656
REMARK  268  A    between atoms: _655  and  _658
REMARK  269  A    between atoms: _658  and  _659
REMARK  270  A    between atoms: _665  and  _666
REMARK  271  A    between atoms: _671  and  _673
REMARK  272  A    between atoms: _673  and  _674
REMARK  273  A    between atoms: _673  and  _676
REMARK  274  A    between atoms: _676  and  _677
REMARK  275  A    between atoms: _677  and  _678
REMARK  276  A    between atoms: _678  and  _679
REMARK  277  A    between atoms: _688  and  _690
REMARK  278  A    between atoms: _690  and  _691
REMARK  279  A    between atoms: _690  and  _693
REMARK  280  A    between atoms: _693  and  _694
REMARK  281  A    between atoms: _697  and  _699
REMARK  282  A    between atoms: _699  and  _700
REMARK  283  A    between atoms: _699  and  _702
REMARK  284  A    between atoms: _702  and  _703
REMARK  285  A    between atoms: _706  and  _708
REMARK  286  A    between atoms: _708  and  _709
REMARK  287  A    between atoms: _708  and  _711
REMARK  288  A    between atoms: _711  and  _712
REMARK  289  A    between atoms: _715  and  _717
REMARK  290  A    between atoms: _717  and  _718
REMARK  291  A    between atoms: _717  and  _720
REMARK  292  A    between atoms: _723  and  _725
REMARK  293  A    between atoms: _725  and  _726
REMARK  294  A    between atoms: _725  and  _728
REMARK  295  A    between atoms: _728  and  _729
REMARK  296  A    between atoms: _729  and  _730
REMARK  297  A    between atoms: _730  and  _731
REMARK  298  A    between atoms: _731  and  _732
REMARK  299  A    between atoms: _736  and  _738
REMARK  300  A    between atoms: _738  and  _739
REMARK  301  A    between atoms: _738  and  _741
REMARK  302  A    between atoms: _741  and  _742
REMARK  303  A    between atoms: _742  and  _743
REMARK  304  A    between atoms: _743  and  _744
REMARK  305  A    between atoms: _753  and  _755
REMARK  306  A    between atoms: _755  and  _756
REMARK  307  A    between atoms: _755  and  _758
REMARK  308  A    between atoms: _758  and  _759
REMARK  309  A    between atoms: _762  and  _764
REMARK  310  A    between atoms: _764  and  _765
REMARK  311  A    between atoms: _764  and  _767
REMARK  312  A    between atoms: _767  and  _768
REMARK  313  A    between atoms: _768  and  _769
REMARK  314  A    between atoms: _772  and  _774
REMARK  315  A    between atoms: _774  and  _775
REMARK  316  A    between atoms: _774  and  _777
REMARK  317  A    between atoms: _777  and  _778
REMARK  318  A    between atoms: _788  and  _790
REMARK  319  A    between atoms: _790  and  _791
REMARK  320  A    between atoms: _790  and  _793
REMARK  321  A    between atoms: _793  and  _794
REMARK  322  A    between atoms: _797  and  _799
REMARK  323  A    between atoms: _799  and  _800
REMARK  324  A    between atoms: _799  and  _802
REMARK  325  A    between atoms: _802  and  _803
REMARK  326  A    between atoms: _806  and  _808
REMARK  327  A    between atoms: _808  and  _809
REMARK  328  A    between atoms: _811  and  _813
REMARK  329  A    between atoms: _813  and  _814
REMARK  330  A    between atoms: _813  and  _816
REMARK  331  A    between atoms: _816  and  _817
REMARK  332  A    between atoms: _820  and  _822
REMARK  333  A    between atoms: _822  and  _823
REMARK  334  A    between atoms: _822  and  _825
REMARK  335  A    between atoms: _825  and  _826
REMARK  336  A    between atoms: _826  and  _827
REMARK  337  A    between atoms: _827  and  _828
REMARK  338  A    between atoms: _828  and  _829
REMARK  339  A    between atoms: _834  and  _835
REMARK  340  A    between atoms: _840  and  _842
REMARK  341  A    between atoms: _842  and  _843
REMARK  342  A    between atoms: _842  and  _845
REMARK  343  A    between atoms: _848  and  _850
REMARK  344  A    between atoms: _850  and  _851
REMARK  345  A    between atoms: _854  and  _856
REMARK  346  A    between atoms: _856  and  _857
REMARK  347  A    between atoms: _856  and  _859
REMARK  348  A    between atoms: _859  and  _860
REMARK  349  A    between atoms: _860  and  _861
REMARK  350  A    between atoms: _864  and  _866
REMARK  351  A    between atoms: _866  and  _867
REMARK  352  A    between atoms: _866  and  _869
REMARK  353  A    between atoms: _872  and  _874
REMARK  354  A    between atoms: _874  and  _875
REMARK  355  A    between atoms: _874  and  _877
REMARK  356  A    between atoms: _877  and  _878
REMARK  357  A    between atoms: _878  and  _879
REMARK  358  A    between atoms: _879  and  _880
REMARK                            x       y       z     vdW  Elec       q    Type
REMARK                         _______ _______ _______ _____ _____    ______ ____
ROOT
ATOM      1  C   PHE A   3     -11.826  25.226 -40.134  0.00  0.00    +0.244 C 
ATOM      2  O   PHE A   3     -10.944  24.639 -39.508  0.00  0.00    -0.273 OA
ATOM      3  N   PRO A   4     -11.652  25.649 -41.399  0.00  0.00    -0.272 N 
ATOM      4  CD  PRO A   4     -10.359  25.448 -42.082  0.00  0.00    +0.094 C 
ATOM      5  CG  PRO A   4     -10.631  25.913 -43.497  0.00  0.00    +0.024 C 
ATOM      6  CB  PRO A   4     -11.740  26.904 -43.377  0.00  0.00    +0.031 C 
ATOM      7  CA  PRO A   4     -12.619  26.331 -42.266  0.00  0.00    +0.152 C 
ENDROOT
BRANCH   7   8
ATOM      8  C   PRO A   4     -13.656  25.378 -42.849  0.00  0.00    +0.241 C 
ATOM      9  O   PRO A   4     -13.419  24.169 -42.910  0.00  0.00    -0.273 OA
ATOM     10  N   ARG A   5     -14.786  25.929 -43.282  0.00  0.00    -0.297 N 
ATOM     11  H   ARG A   5     -14.884  26.964 -43.253  0.00  0.00    +0.150 HD
BRANCH  10  12
ATOM     12  CA  ARG A   5     -15.891  25.131 -43.796  0.00  0.00    +0.149 C 
BRANCH  12  13
ATOM     13  C   ARG A   5     -16.244  25.532 -45.222  0.00  0.00    +0.241 C 
ATOM     14  N   THR A   6     -15.648  26.628 -45.678  0.00  0.00    -0.296 N 
ATOM     15  H   THR A   6     -15.034  27.169 -45.036  0.00  0.00    +0.150 HD
ATOM     16  O   ARG A   5     -17.053  24.878 -45.884  0.00  0.00    -0.273 OA
BRANCH  14  17
ATOM     17  CA  THR A   6     -15.824  27.099 -47.046  0.00  0.00    +0.164 C 
BRANCH  17  18
ATOM     18  C   THR A   6     -14.481  27.560 -47.599  0.00  0.00    +0.229 C 
ATOM     19  O   THR A   6     -13.528  27.757 -46.845  0.00  0.00    -0.286 OA
ENDBRANCH  17  18
BRANCH  17  20
ATOM     20  CB  THR A   6     -16.837  28.263 -47.142  0.00  0.00    +0.136 C 
ATOM     21  CG2 THR A   6     -18.196  27.864 -46.580  0.00  0.00    +0.034 C 
BRANCH  20  22
ATOM     22  OG1 THR A   6     -16.337  29.397 -46.425  0.00  0.00    -0.382 OA
ATOM     23  HG1 THR A   6     -16.988  30.140 -46.489  0.00  0.00    +0.210 HD
ENDBRANCH  20  22
ENDBRANCH  17  20
ENDBRANCH  14  17
ENDBRANCH  12  13
BRANCH  12  24
ATOM     24  CB  ARG A   5     -17.112  25.283 -42.890  0.00  0.00    +0.033 C 
BRANCH  24  25
ATOM     25  CG  ARG A   5     -17.789  23.979 -42.536  0.00  0.00    +0.045 C 
BRANCH  25  26
ATOM     26  CD  ARG A   5     -18.448  24.094 -41.182  0.00  0.00    +0.174 C 
BRANCH  26  27
ATOM     27  NE  ARG A   5     -19.305  22.956 -40.879  0.00  0.00    -0.265 N 
ATOM     28  CZ  ARG A   5     -19.489  22.478 -39.655  0.00  0.00    +0.342 C 
ATOM     29  NH2 ARG A   5     -18.857  23.031 -38.629  0.00  0.00    -0.292 N 
ATOM     30 HH21 ARG A   5     -18.999  22.658 -37.669  0.00  0.00    +0.255 HD
ATOM     31 HH22 ARG A   5     -18.219  23.837 -38.785  0.00  0.00    +0.255 HD
ATOM     32  NH1 ARG A   5     -20.289  21.440 -39.458  0.00  0.00    -0.292 N 
ATOM     33 HH11 ARG A   5     -20.431  21.068 -38.497  0.00  0.00    +0.255 HD
ATOM     34 HH12 ARG A   5     -20.775  20.998 -40.264  0.00  0.00    +0.255 HD
ATOM     35  HE  ARG A   5     -19.801  22.492 -41.667  0.00  0.00    +0.259 HD
ENDBRANCH  26  27
ENDBRANCH  25  26
ENDBRANCH  24  25
ENDBRANCH  12  24
ENDBRANCH  10  12
ENDBRANCH   7   8
BRANCH   1  36
ATOM     36  CA  PHE A   3     -13.179  25.487 -39.478  0.00  0.00    +0.153 C 
BRANCH  36  38
ATOM     37  C   GLY A   2     -14.840  23.813 -38.853  0.00  0.00    +0.243 C 
ATOM     38  N   PHE A   3     -13.597  24.275 -38.787  0.00  0.00    -0.297 N 
ATOM     39  H   PHE A   3     -12.897  23.753 -38.222  0.00  0.00    +0.150 HD
ATOM     40  O   GLY A   2     -15.754  24.417 -39.418  0.00  0.00    -0.273 OA
BRANCH  37  41
ATOM     41  CA  GLY A   2     -15.083  22.479 -38.172  0.00  0.00    +0.176 C 
BRANCH  41  44
ATOM     42  C   ASP A   1     -13.705  22.270 -36.186  0.00  0.00    +0.239 C 
ATOM     43  O   ASP A   1     -14.524  22.880 -35.500  0.00  0.00    -0.274 OA
ATOM     44  N   GLY A   2     -13.900  22.005 -37.474  0.00  0.00    -0.296 N 
ATOM     45  H   GLY A   2     -13.192  21.447 -37.992  0.00  0.00    +0.150 HD
BRANCH  42  46
ATOM     46  CA  ASP A   1     -12.399  21.765 -35.577  0.00  0.00    +0.156 C 
BRANCH  46  47
ATOM     47  N   ASP A   1     -11.411  22.834 -35.469  0.00  0.00    -0.238 NA
ATOM     48  H   ASP A   1     -11.628  23.655 -34.869  0.00  0.00    +0.142 HD
ENDBRANCH  46  47
BRANCH  46  49
ATOM     49  CB  ASP A   1     -12.655  21.154 -34.196  0.00  0.00    +0.140 C 
BRANCH  49  50
ATOM     50  CG  ASP A   1     -13.709  20.064 -34.220  0.00  0.00    +0.367 C 
ATOM     51  OD2 ASP A   1     -14.266  19.756 -33.144  0.00  0.00    -0.246 OA
ATOM     52  OD1 ASP A   1     -13.977  19.507 -35.305  0.00  0.00    -0.246 OA
ENDBRANCH  49  50
ENDBRANCH  46  49
ENDBRANCH  42  46
ENDBRANCH  41  44
ENDBRANCH  37  41
ENDBRANCH  36  38
BRANCH  36  53
ATOM     53  CB  PHE A   3     -13.104  26.666 -38.502  0.00  0.00    +0.055 C 
BRANCH  53  54
ATOM     54  CG  PHE A   3     -12.699  27.969 -39.141  0.00  0.00    -0.020 A 
ATOM     55  CD2 PHE A   3     -11.360  28.290 -39.313  0.00  0.00    -0.004 A 
ATOM     56  CE2 PHE A   3     -10.985  29.488 -39.899  0.00  0.00    -0.000 A 
ATOM     57  CZ  PHE A   3     -11.952  30.386 -40.313  0.00  0.00    -0.000 A 
ATOM     58  CE1 PHE A   3     -13.290  30.083 -40.142  0.00  0.00    -0.000 A 
ATOM     59  CD1 PHE A   3     -13.658  28.880 -39.555  0.00  0.00    -0.004 A 
ENDBRANCH  53  54
ENDBRANCH  36  53
ENDBRANCH   1  36
TORSDOF 21
REMARK  Name = ../refined-set-2016/4x8o/4x8o_pocket.pdb
REMARK  358 active torsions:
REMARK  status: ('A' for Active; 'I' for Inactive)
REMARK    1  A    between atoms: _1  and  _3
REMARK    2  A    between atoms: _3  and  _4
REMARK    3  A    between atoms: _3  and  _6
REMARK    4  A    between atoms: _6  and  _7
REMARK    5  A    between atoms: _10  and  _12
REMARK    6  A    between atoms: _12  and  _13
REMARK    7  A    between atoms: _12  and  _15
REMARK    8  A    between atoms: _15  and  _16
REMARK    9  A    between atoms: _19  and  _21
REMARK   10  A    between atoms: _21  and  _22
REMARK   11  A    between atoms: _24  and  _26
REMARK   12  A    between atoms: _26  and  _27
REMARK   13  A    between atoms: _31  and  _32
REMARK   14  A    between atoms: _37  and  _39
REMARK   15  A    between atoms: _39  and  _40
REMARK   16  A    between atoms: _42  and  _44
REMARK   17  A    between atoms: _44  and  _45
REMARK   18  A    between atoms: _48  and  _50
REMARK   19  A    between atoms: _50  and  _51
REMARK   20  A    between atoms: _53  and  _55
REMARK   21  A    between atoms: _55  and  _56
REMARK   22  A    between atoms: _55  and  _58
REMARK   23  A    between atoms: _58  and  _59
REMARK   24  A    between atoms: _59  and  _60
REMARK   25  A    between atoms: _60  and  _61
REMARK   26  A    between atoms: _61  and  _62
REMARK   27  A    between atoms: _66  and  _68
REMARK   28  A    between atoms: _68  and  _69
REMARK   29  A    between atoms: _71  and  _73
REMARK   30  A    between atoms: _73  and  _74
REMARK   31  A    between atoms: _73  and  _76
REMARK   32  A    between atoms: _76  and  _77
REMARK   33  A    between atoms: _80  and  _82
REMARK   34  A    between atoms: _82  and  _83
REMARK   35  A    between atoms: _82  and  _85
REMARK   36  A    between atoms: _85  and  _86
REMARK   37  A    between atoms: _86  and  _87
REMARK   38  A    between atoms: _92  and  _94
REMARK   39  A    between atoms: _94  and  _95
REMARK   40  A    between atoms: _98  and  _100
REMARK   41  A    between atoms: _100  and  _101
REMARK   42  A    between atoms: _100  and  _103
REMARK   43  A    between atoms: _103  and  _104
REMARK   44  A    between atoms: _104  and  _105
REMARK   45  A    between atoms: _110  and  _112
REMARK   46  A    between atoms: _112  and  _113
REMARK   47  A    between atoms: _112  and  _115
REMARK   48  A    between atoms: _115  and  _116
REMARK   49  A    between atoms: _122  and  _124
REMARK   50  A    between atoms: _124  and  _125
REMARK   51  A    between atoms: _124  and  _127
REMARK   52  A    between atoms: _127  and  _128
REMARK   53  A    between atoms: _128  and  _129
REMARK   54  A    between atoms: _134  and  _136
REMARK   55  A    between atoms: _136  and  _137
REMARK   56  A    between atoms: _136  and  _139
REMARK   57  A    between atoms: _139  and  _140
REMARK   58  A    between atoms: _142  and  _144
REMARK   59  A    between atoms: _144  and  _145
REMARK   60  A    between atoms: _144  and  _147
REMARK   61  A    between atoms: _147  and  _148
REMARK   62  A    between atoms: _151  and  _153
REMARK   63  A    between atoms: _153  and  _154
REMARK   64  A    between atoms: _156  and  _158
REMARK   65  A    between atoms: _158  and  _159
REMARK   66  A    between atoms: _158  and  _161
REMARK   67  A    between atoms: _161  and  _162
REMARK   68  A    between atoms: _165  and  _167
REMARK   69  A    between atoms: _167  and  _168
REMARK   70  A    between atoms: _167  and  _170
REMARK   71  A    between atoms: _170  and  _171
REMARK   72  A    between atoms: _171  and  _172
REMARK   73  A    between atoms: _174  and  _176
REMARK   74  A    between atoms: _176  and  _177
REMARK   75  A    between atoms: _176  and  _179
REMARK   76  A    between atoms: _179  and  _180
REMARK   77  A    between atoms: _183  and  _185
REMARK   78  A    between atoms: _185  and  _186
REMARK   79  A    between atoms: _185  and  _188
REMARK   80  A    between atoms: _188  and  _189
REMARK   81  A    between atoms: _189  and  _190
REMARK   82  A    between atoms: _190  and  _191
REMARK   83  A    between atoms: _200  and  _202
REMARK   84  A    between atoms: _202  and  _203
REMARK   85  A    between atoms: _206  and  _208
REMARK   86  A    between atoms: _208  and  _209
REMARK   87  A    between atoms: _208  and  _211
REMARK   88  A    between atoms: _211  and  _212
REMARK   89  A    between atoms: _212  and  _213
REMARK   90  A    between atoms: _213  and  _214
REMARK   91  A    between atoms: _214  and  _215
REMARK   92  A    between atoms: _219  and  _221
REMARK   93  A    between atoms: _221  and  _222
REMARK   94  A    between atoms: _221  and  _224
REMARK   95  A    between atoms: _224  and  _225
REMARK   96  A    between atoms: _228  and  _230
REMARK   97  A    between atoms: _230  and  _231
REMARK   98  A    between atoms: _230  and  _233
REMARK   99  A    between atoms: _233  and  _234
REMARK  100  A    between atoms: _237  and  _239
REMARK  101  A    between atoms: _239  and  _240
REMARK  102  A    between atoms: _239  and  _242
REMARK  103  A    between atoms: _242  and  _243
REMARK  104  A    between atoms: _243  and  _244
REMARK  105  A    between atoms: _246  and  _248
REMARK  106  A    between atoms: _248  and  _249
REMARK  107  A    between atoms: _248  and  _251
REMARK  108  A    between atoms: _251  and  _252
REMARK  109  A    between atoms: _255  and  _257
REMARK  110  A    between atoms: _257  and  _258
REMARK  111  A    between atoms: _261  and  _263
REMARK  112  A    between atoms: _263  and  _264
REMARK  113  A    between atoms: _266  and  _268
REMARK  114  A    between atoms: _268  and  _269
REMARK  115  A    between atoms: _268  and  _271
REMARK  116  A    between atoms: _271  and  _272
REMARK  117  A    between atoms: _272  and  _273
REMARK  118  A    between atoms: _273  and  _274
REMARK  119  A    between atoms: _274  and  _275
REMARK  120  A    between atoms: _279  and  _281
REMARK  121  A    between atoms: _281  and  _282
REMARK  122  A    between atoms: _281  and  _284
REMARK  123  A    between atoms: _284  and  _285
REMARK  124  A    between atoms: _288  and  _290
REMARK  125  A    between atoms: _290  and  _291
REMARK  126  A    between atoms: _290  and  _293
REMARK  127  A    between atoms: _296  and  _298
REMARK  128  A    between atoms: _298  and  _299
REMARK  129  A    between atoms: _298  and  _301
REMARK  130  A    between atoms: _301  and  _302
REMARK  131  A    between atoms: _305  and  _307
REMARK  132  A    between atoms: _307  and  _308
REMARK  133  A    between atoms: _307  and  _310
REMARK  134  A    between atoms: _310  and  _311
REMARK  135  A    between atoms: _314  and  _316
REMARK  136  A    between atoms: _316  and  _317
REMARK  137  A    between atoms: _316  and  _319
REMARK  138  A    between atoms: _319  and  _320
REMARK  139  A    between atoms: _320  and  _321
REMARK  140  A    between atoms: _324  and  _326
REMARK  141  A    between atoms: _326  and  _327
REMARK  142  A    between atoms: _326  and  _329
REMARK  143  A    between atoms: _329  and  _330
REMARK  144  A    between atoms: _333  and  _335
REMARK  145  A    between atoms: _335  and  _336
REMARK  146  A    between atoms: _335  and  _338
REMARK  147  A    between atoms: _341  and  _343
REMARK  148  A    between atoms: _343  and  _344
REMARK  149  A    between atoms: _343  and  _346
REMARK  150  A    between atoms: _346  and  _347
REMARK  151  A    between atoms: _350  and  _352
REMARK  152  A    between atoms: _352  and  _353
REMARK  153  A    between atoms: _352  and  _355
REMARK  154  A    between atoms: _358  and  _360
REMARK  155  A    between atoms: _360  and  _361
REMARK  156  A    between atoms: _360  and  _363
REMARK  157  A    between atoms: _363  and  _364
REMARK  158  A    between atoms: _367  and  _369
REMARK  159  A    between atoms: _369  and  _370
REMARK  160  A    between atoms: _372  and  _374
REMARK  161  A    between atoms: _374  and  _375
REMARK  162  A    between atoms: _374  and  _377
REMARK  163  A    between atoms: _377  and  _378
REMARK  164  A    between atoms: _385  and  _386
REMARK  165  A    between atoms: _391  and  _393
REMARK  166  A    between atoms: _393  and  _394
REMARK  167  A    between atoms: _393  and  _396
REMARK  168  A    between atoms: _396  and  _397
REMARK  169  A    between atoms: _397  and  _398
REMARK  170  A    between atoms: _398  and  _399
REMARK  171  A    between atoms: _408  and  _410
REMARK  172  A    between atoms: _410  and  _411
REMARK  173  A    between atoms: _410  and  _413
REMARK  174  A    between atoms: _413  and  _414
REMARK  175  A    between atoms: _417  and  _419
REMARK  176  A    between atoms: _419  and  _420
REMARK  177  A    between atoms: _419  and  _422
REMARK  178  A    between atoms: _422  and  _423
REMARK  179  A    between atoms: _423  and  _424
REMARK  180  A    between atoms: _429  and  _431
REMARK  181  A    between atoms: _431  and  _432
REMARK  182  A    between atoms: _431  and  _434
REMARK  183  A    between atoms: _434  and  _435
REMARK  184  A    between atoms: _441  and  _443
REMARK  185  A    between atoms: _443  and  _444
REMARK  186  A    between atoms: _443  and  _446
REMARK  187  A    between atoms: _449  and  _451
REMARK  188  A    between atoms: _451  and  _452
REMARK  189  A    between atoms: _451  and  _454
REMARK  190  A    between atoms: _454  and  _455
REMARK  191  A    between atoms: _458  and  _460
REMARK  192  A    between atoms: _460  and  _461
REMARK  193  A    between atoms: _460  and  _463
REMARK  194  A    between atoms: _463  and  _464
REMARK  195  A    between atoms: _467  and  _469
REMARK  196  A    between atoms: _469  and  _470
REMARK  197  A    between atoms: _469  and  _472
REMARK  198  A    between atoms: _475  and  _477
REMARK  199  A    between atoms: _477  and  _478
REMARK  200  A    between atoms: _477  and  _480
REMARK  201  A    between atoms: _480  and  _481
REMARK  202  A    between atoms: _484  and  _486
REMARK  203  A    between atoms: _486  and  _487
REMARK  204  A    between atoms: _486  and  _489
REMARK  205  A    between atoms: _489  and  _490
REMARK  206  A    between atoms: _490  and  _491
REMARK  207  A    between atoms: _491  and  _492
REMARK  208  A    between atoms: _501  and  _503
REMARK  209  A    between atoms: _503  and  _504
REMARK  210  A    between atoms: _503  and  _506
REMARK  211  A    between atoms: _506  and  _507
REMARK  212  A    between atoms: _510  and  _512
REMARK  213  A    between atoms: _512  and  _513
REMARK  214  A    between atoms: _512  and  _515
REMARK  215  A    between atoms: _518  and  _520
REMARK  216  A    between atoms: _520  and  _521
REMARK  217  A    between atoms: _523  and  _525
REMARK  218  A    between atoms: _525  and  _526
REMARK  219  A    between atoms: _525  and  _528
REMARK  220  A    between atoms: _528  and  _529
REMARK  221  A    between atoms: _529  and  _530
REMARK  222  A    between atoms: _530  and  _531
REMARK  223  A    between atoms: _540  and  _542
REMARK  224  A    between atoms: _542  and  _543
REMARK  225  A    between atoms: _542  and  _545
REMARK  226  A    between atoms: _545  and  _546
REMARK  227  A    between atoms: _546  and  _547
REMARK  228  A    between atoms: _547  and  _548
REMARK  229  A    between atoms: _557  and  _559
REMARK  230  A    between atoms: _559  and  _560
REMARK  231  A    between atoms: _559  and  _562
REMARK  232  A    between atoms: _565  and  _567
REMARK  233  A    between atoms: _567  and  _568
REMARK  234  A    between atoms: _570  and  _572
REMARK  235  A    between atoms: _572  and  _573
REMARK  236  A    between atoms: _572  and  _575
REMARK  237  A    between atoms: _575  and  _576
REMARK  238  A    between atoms: _576  and  _577
REMARK  239  A    between atoms: _577  and  _578
REMARK  240  A    between atoms: _587  and  _589
REMARK  241  A    between atoms: _589  and  _590
REMARK  242  A    between atoms: _589  and  _592
REMARK  243  A    between atoms: _595  and  _597
REMARK  244  A    between atoms: _597  and  _598
REMARK  245  A    between atoms: _597  and  _600
REMARK  246  A    between atoms: _600  and  _601
REMARK  247  A    between atoms: _606  and  _607
REMARK  248  A    between atoms: _609  and  _611
REMARK  249  A    between atoms: _611  and  _612
REMARK  250  A    between atoms: _611  and  _614
REMARK  251  A    between atoms: _614  and  _615
REMARK  252  A    between atoms: _620  and  _622
REMARK  253  A    between atoms: _622  and  _623
REMARK  254  A    between atoms: _622  and  _625
REMARK  255  A    between atoms: _628  and  _630
REMARK  256  A    between atoms: _630  and  _631
REMARK  257  A    between atoms: _630  and  _633
REMARK  258  A    between atoms: _633  and  _634
REMARK  259  A    between atoms: _634  and  _635
REMARK  260  A    between atoms: _635  and  _636
REMARK  261  A    between atoms: _636  and  _637
REMARK  262  A    between atoms: _641  and  _643
REMARK  263  A    between atoms: _643  and  _644
REMARK  264  A    between atoms: _643  and  _646
REMARK  265  A    between atoms: _646  and  _647
REMARK  266  A    between atoms: _653  and  _655
REMARK  267  A    between atoms: _655  and  _656
REMARK  268  A    between atoms: _655  and  _658
REMARK  269  A    between atoms: _658  and  _659
REMARK  270  A    between atoms: _665  and  _666
REMARK  271  A    between atoms: _671  and  _673
REMARK  272  A    between atoms: _673  and  _674
REMARK  273  A    between atoms: _673  and  _676
REMARK  274  A    between atoms: _676  and  _677
REMARK  275  A    between atoms: _677  and  _678
REMARK  276  A    between atoms: _678  and  _679
REMARK  277  A    between atoms: _688  and  _690
REMARK  278  A    between atoms: _690  and  _691
REMARK  279  A    between atoms: _690  and  _693
REMARK  280  A    between atoms: _693  and  _694
REMARK  281  A    between atoms: _697  and  _699
REMARK  282  A    between atoms: _699  and  _700
REMARK  283  A    between atoms: _699  and  _702
REMARK  284  A    between atoms: _702  and  _703
REMARK  285  A    between atoms: _706  and  _708
REMARK  286  A    between atoms: _708  and  _709
REMARK  287  A    between atoms: _708  and  _711
REMARK  288  A    between atoms: _711  and  _712
REMARK  289  A    between atoms: _715  and  _717
REMARK  290  A    between atoms: _717  and  _718
REMARK  291  A    between atoms: _717  and  _720
REMARK  292  A    between atoms: _723  and  _725
REMARK  293  A    between atoms: _725  and  _726
REMARK  294  A    between atoms: _725  and  _728
REMARK  295  A    between atoms: _728  and  _729
REMARK  296  A    between atoms: _729  and  _730
REMARK  297  A    between atoms: _730  and  _731
REMARK  298  A    between atoms: _731  and  _732
REMARK  299  A    between atoms: _736  and  _738
REMARK  300  A    between atoms: _738  and  _739
REMARK  301  A    between atoms: _738  and  _741
REMARK  302  A    between atoms: _741  and  _742
REMARK  303  A    between atoms: _742  and  _743
REMARK  304  A    between atoms: _743  and  _744
REMARK  305  A    between atoms: _753  and  _755
REMARK  306  A    between atoms: _755  and  _756
REMARK  307  A    between atoms: _755  and  _758
REMARK  308  A    between atoms: _758  and  _759
REMARK  309  A    between atoms: _762  and  _764
REMARK  310  A    between atoms: _764  and  _765
REMARK  311  A    between atoms: _764  and  _767
REMARK  312  A    between atoms: _767  and  _768
REMARK  313  A    between atoms: _768  and  _769
REMARK  314  A    between atoms: _772  and  _774
REMARK  315  A    between atoms: _774  and  _775
REMARK  316  A    between atoms: _774  and  _777
REMARK  317  A    between atoms: _777  and  _778
REMARK  318  A    between atoms: _788  and  _790
REMARK  319  A    between atoms: _790  and  _791
REMARK  320  A    between atoms: _790  and  _793
REMARK  321  A    between atoms: _793  and  _794
REMARK  322  A    between atoms: _797  and  _799
REMARK  323  A    between atoms: _799  and  _800
REMARK  324  A    between atoms: _799  and  _802
REMARK  325  A    between atoms: _802  and  _803
REMARK  326  A    between atoms: _806  and  _808
REMARK  327  A    between atoms: _808  and  _809
REMARK  328  A    between atoms: _811  and  _813
REMARK  329  A    between atoms: _813  and  _814
REMARK  330  A    between atoms: _813  and  _816
REMARK  331  A    between atoms: _816  and  _817
REMARK  332  A    between atoms: _820  and  _822
REMARK  333  A    between atoms: _822  and  _823
REMARK  334  A    between atoms: _822  and  _825
REMARK  335  A    between atoms: _825  and  _826
REMARK  336  A    between atoms: _826  and  _827
REMARK  337  A    between atoms: _827  and  _828
REMARK  338  A    between atoms: _828  and  _829
REMARK  339  A    between atoms: _834  and  _835
REMARK  340  A    between atoms: _840  and  _842
REMARK  341  A    between atoms: _842  and  _843
REMARK  342  A    between atoms: _842  and  _845
REMARK  343  A    between atoms: _848  and  _850
REMARK  344  A    between atoms: _850  and  _851
REMARK  345  A    between atoms: _854  and  _856
REMARK  346  A    between atoms: _856  and  _857
REMARK  347  A    between atoms: _856  and  _859
REMARK  348  A    between atoms: _859  and  _860
REMARK  349  A    between atoms: _860  and  _861
REMARK  350  A    between atoms: _864  and  _866
REMARK  351  A    between atoms: _866  and  _867
REMARK  352  A    between atoms: _866  and  _869
REMARK  353  A    between atoms: _872  and  _874
REMARK  354  A    between atoms: _874  and  _875
REMARK  355  A    between atoms: _874  and  _877
REMARK  356  A    between atoms: _877  and  _878
REMARK  357  A    between atoms: _878  and  _879
REMARK  358  A    between atoms: _879  and  _880
REMARK                            x       y       z     vdW  Elec       q    Type
REMARK                         _______ _______ _______ _____ _____    ______ ____
ROOT
ATOM      1  CB  GLN A   1     -13.714  29.797 -43.996  0.00  0.00    +0.035 C 
ENDROOT
BRANCH   1   2
ATOM      2  CA  GLN A   1     -12.870  30.774 -44.823  0.00  0.00    +0.134 C 
BRANCH   2   3
ATOM      3  N   GLN A   1     -13.405  30.915 -46.174  0.00  0.00    -0.239 NA
ATOM      4  H   GLN A   1     -14.172  30.290 -46.494  0.00  0.00    +0.142 HD
ENDBRANCH   2   3
BRANCH   2   5
ATOM      5  C   GLN A   1     -11.410  30.320 -44.879  0.00  0.00    +0.224 C 
ATOM      6  O   GLN A   1     -10.576  30.792 -44.108  0.00  0.00    -0.287 OA
ENDBRANCH   2   5
ENDBRANCH   1   2
BRANCH   1   7
ATOM      7  CG  GLN A   1     -15.055  30.379 -43.554  0.00  0.00    +0.087 C 
BRANCH   7   8
ATOM      8  CD  GLN A   1     -15.961  29.370 -42.869  0.00  0.00    +0.219 C 
ATOM      9  OE1 GLN A   1     -15.501  28.485 -42.147  0.00  0.00    -0.275 OA
ATOM     10  NE2 GLN A   1     -17.264  29.502 -43.095  0.00  0.00    -0.329 N 
ATOM     11 HE21 GLN A   1     -17.937  28.843 -42.655  0.00  0.00    +0.145 HD
ATOM     12 HE22 GLN A   1     -17.610  30.264 -43.712  0.00  0.00    +0.145 HD
ENDBRANCH   7   8
ENDBRANCH   1   7
TORSDOF 5
REMARK  Name = ../refined-set-2016/4x8o/4x8o_pocket.pdb
REMARK  358 active torsions:
REMARK  status: ('A' for Active; 'I' for Inactive)
REMARK    1  A    between atoms: _1  and  _3
REMARK    2  A    between atoms: _3  and  _4
REMARK    3  A    between atoms: _3  and  _6
REMARK    4  A    between atoms: _6  and  _7
REMARK    5  A    between atoms: _10  and  _12
REMARK    6  A    between atoms: _12  and  _13
REMARK    7  A    between atoms: _12  and  _15
REMARK    8  A    between atoms: _15  and  _16
REMARK    9  A    between atoms: _19  and  _21
REMARK   10  A    between atoms: _21  and  _22
REMARK   11  A    between atoms: _24  and  _26
REMARK   12  A    between atoms: _26  and  _27
REMARK   13  A    between atoms: _31  and  _32
REMARK   14  A    between atoms: _37  and  _39
REMARK   15  A    between atoms: _39  and  _40
REMARK   16  A    between atoms: _42  and  _44
REMARK   17  A    between atoms: _44  and  _45
REMARK   18  A    between atoms: _48  and  _50
REMARK   19  A    between atoms: _50  and  _51
REMARK   20  A    between atoms: _53  and  _55
REMARK   21  A    between atoms: _55  and  _56
REMARK   22  A    between atoms: _55  and  _58
REMARK   23  A    between atoms: _58  and  _59
REMARK   24  A    between atoms: _59  and  _60
REMARK   25  A    between atoms: _60  and  _61
REMARK   26  A    between atoms: _61  and  _62
REMARK   27  A    between atoms: _66  and  _68
REMARK   28  A    between atoms: _68  and  _69
REMARK   29  A    between atoms: _71  and  _73
REMARK   30  A    between atoms: _73  and  _74
REMARK   31  A    between atoms: _73  and  _76
REMARK   32  A    between atoms: _76  and  _77
REMARK   33  A    between atoms: _80  and  _82
REMARK   34  A    between atoms: _82  and  _83
REMARK   35  A    between atoms: _82  and  _85
REMARK   36  A    between atoms: _85  and  _86
REMARK   37  A    between atoms: _86  and  _87
REMARK   38  A    between atoms: _92  and  _94
REMARK   39  A    between atoms: _94  and  _95
REMARK   40  A    between atoms: _98  and  _100
REMARK   41  A    between atoms: _100  and  _101
REMARK   42  A    between atoms: _100  and  _103
REMARK   43  A    between atoms: _103  and  _104
REMARK   44  A    between atoms: _104  and  _105
REMARK   45  A    between atoms: _110  and  _112
REMARK   46  A    between atoms: _112  and  _113
REMARK   47  A    between atoms: _112  and  _115
REMARK   48  A    between atoms: _115  and  _116
REMARK   49  A    between atoms: _122  and  _124
REMARK   50  A    between atoms: _124  and  _125
REMARK   51  A    between atoms: _124  and  _127
REMARK   52  A    between atoms: _127  and  _128
REMARK   53  A    between atoms: _128  and  _129
REMARK   54  A    between atoms: _134  and  _136
REMARK   55  A    between atoms: _136  and  _137
REMARK   56  A    between atoms: _136  and  _139
REMARK   57  A    between atoms: _139  and  _140
REMARK   58  A    between atoms: _142  and  _144
REMARK   59  A    between atoms: _144  and  _145
REMARK   60  A    between atoms: _144  and  _147
REMARK   61  A    between atoms: _147  and  _148
REMARK   62  A    between atoms: _151  and  _153
REMARK   63  A    between atoms: _153  and  _154
REMARK   64  A    between atoms: _156  and  _158
REMARK   65  A    between atoms: _158  and  _159
REMARK   66  A    between atoms: _158  and  _161
REMARK   67  A    between atoms: _161  and  _162
REMARK   68  A    between atoms: _165  and  _167
REMARK   69  A    between atoms: _167  and  _168
REMARK   70  A    between atoms: _167  and  _170
REMARK   71  A    between atoms: _170  and  _171
REMARK   72  A    between atoms: _171  and  _172
REMARK   73  A    between atoms: _174  and  _176
REMARK   74  A    between atoms: _176  and  _177
REMARK   75  A    between atoms: _176  and  _179
REMARK   76  A    between atoms: _179  and  _180
REMARK   77  A    between atoms: _183  and  _185
REMARK   78  A    between atoms: _185  and  _186
REMARK   79  A    between atoms: _185  and  _188
REMARK   80  A    between atoms: _188  and  _189
REMARK   81  A    between atoms: _189  and  _190
REMARK   82  A    between atoms: _190  and  _191
REMARK   83  A    between atoms: _200  and  _202
REMARK   84  A    between atoms: _202  and  _203
REMARK   85  A    between atoms: _206  and  _208
REMARK   86  A    between atoms: _208  and  _209
REMARK   87  A    between atoms: _208  and  _211
REMARK   88  A    between atoms: _211  and  _212
REMARK   89  A    between atoms: _212  and  _213
REMARK   90  A    between atoms: _213  and  _214
REMARK   91  A    between atoms: _214  and  _215
REMARK   92  A    between atoms: _219  and  _221
REMARK   93  A    between atoms: _221  and  _222
REMARK   94  A    between atoms: _221  and  _224
REMARK   95  A    between atoms: _224  and  _225
REMARK   96  A    between atoms: _228  and  _230
REMARK   97  A    between atoms: _230  and  _231
REMARK   98  A    between atoms: _230  and  _233
REMARK   99  A    between atoms: _233  and  _234
REMARK  100  A    between atoms: _237  and  _239
REMARK  101  A    between atoms: _239  and  _240
REMARK  102  A    between atoms: _239  and  _242
REMARK  103  A    between atoms: _242  and  _243
REMARK  104  A    between atoms: _243  and  _244
REMARK  105  A    between atoms: _246  and  _248
REMARK  106  A    between atoms: _248  and  _249
REMARK  107  A    between atoms: _248  and  _251
REMARK  108  A    between atoms: _251  and  _252
REMARK  109  A    between atoms: _255  and  _257
REMARK  110  A    between atoms: _257  and  _258
REMARK  111  A    between atoms: _261  and  _263
REMARK  112  A    between atoms: _263  and  _264
REMARK  113  A    between atoms: _266  and  _268
REMARK  114  A    between atoms: _268  and  _269
REMARK  115  A    between atoms: _268  and  _271
REMARK  116  A    between atoms: _271  and  _272
REMARK  117  A    between atoms: _272  and  _273
REMARK  118  A    between atoms: _273  and  _274
REMARK  119  A    between atoms: _274  and  _275
REMARK  120  A    between atoms: _279  and  _281
REMARK  121  A    between atoms: _281  and  _282
REMARK  122  A    between atoms: _281  and  _284
REMARK  123  A    between atoms: _284  and  _285
REMARK  124  A    between atoms: _288  and  _290
REMARK  125  A    between atoms: _290  and  _291
REMARK  126  A    between atoms: _290  and  _293
REMARK  127  A    between atoms: _296  and  _298
REMARK  128  A    between atoms: _298  and  _299
REMARK  129  A    between atoms: _298  and  _301
REMARK  130  A    between atoms: _301  and  _302
REMARK  131  A    between atoms: _305  and  _307
REMARK  132  A    between atoms: _307  and  _308
REMARK  133  A    between atoms: _307  and  _310
REMARK  134  A    between atoms: _310  and  _311
REMARK  135  A    between atoms: _314  and  _316
REMARK  136  A    between atoms: _316  and  _317
REMARK  137  A    between atoms: _316  and  _319
REMARK  138  A    between atoms: _319  and  _320
REMARK  139  A    between atoms: _320  and  _321
REMARK  140  A    between atoms: _324  and  _326
REMARK  141  A    between atoms: _326  and  _327
REMARK  142  A    between atoms: _326  and  _329
REMARK  143  A    between atoms: _329  and  _330
REMARK  144  A    between atoms: _333  and  _335
REMARK  145  A    between atoms: _335  and  _336
REMARK  146  A    between atoms: _335  and  _338
REMARK  147  A    between atoms: _341  and  _343
REMARK  148  A    between atoms: _343  and  _344
REMARK  149  A    between atoms: _343  and  _346
REMARK  150  A    between atoms: _346  and  _347
REMARK  151  A    between atoms: _350  and  _352
REMARK  152  A    between atoms: _352  and  _353
REMARK  153  A    between atoms: _352  and  _355
REMARK  154  A    between atoms: _358  and  _360
REMARK  155  A    between atoms: _360  and  _361
REMARK  156  A    between atoms: _360  and  _363
REMARK  157  A    between atoms: _363  and  _364
REMARK  158  A    between atoms: _367  and  _369
REMARK  159  A    between atoms: _369  and  _370
REMARK  160  A    between atoms: _372  and  _374
REMARK  161  A    between atoms: _374  and  _375
REMARK  162  A    between atoms: _374  and  _377
REMARK  163  A    between atoms: _377  and  _378
REMARK  164  A    between atoms: _385  and  _386
REMARK  165  A    between atoms: _391  and  _393
REMARK  166  A    between atoms: _393  and  _394
REMARK  167  A    between atoms: _393  and  _396
REMARK  168  A    between atoms: _396  and  _397
REMARK  169  A    between atoms: _397  and  _398
REMARK  170  A    between atoms: _398  and  _399
REMARK  171  A    between atoms: _408  and  _410
REMARK  172  A    between atoms: _410  and  _411
REMARK  173  A    between atoms: _410  and  _413
REMARK  174  A    between atoms: _413  and  _414
REMARK  175  A    between atoms: _417  and  _419
REMARK  176  A    between atoms: _419  and  _420
REMARK  177  A    between atoms: _419  and  _422
REMARK  178  A    between atoms: _422  and  _423
REMARK  179  A    between atoms: _423  and  _424
REMARK  180  A    between atoms: _429  and  _431
REMARK  181  A    between atoms: _431  and  _432
REMARK  182  A    between atoms: _431  and  _434
REMARK  183  A    between atoms: _434  and  _435
REMARK  184  A    between atoms: _441  and  _443
REMARK  185  A    between atoms: _443  and  _444
REMARK  186  A    between atoms: _443  and  _446
REMARK  187  A    between atoms: _449  and  _451
REMARK  188  A    between atoms: _451  and  _452
REMARK  189  A    between atoms: _451  and  _454
REMARK  190  A    between atoms: _454  and  _455
REMARK  191  A    between atoms: _458  and  _460
REMARK  192  A    between atoms: _460  and  _461
REMARK  193  A    between atoms: _460  and  _463
REMARK  194  A    between atoms: _463  and  _464
REMARK  195  A    between atoms: _467  and  _469
REMARK  196  A    between atoms: _469  and  _470
REMARK  197  A    between atoms: _469  and  _472
REMARK  198  A    between atoms: _475  and  _477
REMARK  199  A    between atoms: _477  and  _478
REMARK  200  A    between atoms: _477  and  _480
REMARK  201  A    between atoms: _480  and  _481
REMARK  202  A    between atoms: _484  and  _486
REMARK  203  A    between atoms: _486  and  _487
REMARK  204  A    between atoms: _486  and  _489
REMARK  205  A    between atoms: _489  and  _490
REMARK  206  A    between atoms: _490  and  _491
REMARK  207  A    between atoms: _491  and  _492
REMARK  208  A    between atoms: _501  and  _503
REMARK  209  A    between atoms: _503  and  _504
REMARK  210  A    between atoms: _503  and  _506
REMARK  211  A    between atoms: _506  and  _507
REMARK  212  A    between atoms: _510  and  _512
REMARK  213  A    between atoms: _512  and  _513
REMARK  214  A    between atoms: _512  and  _515
REMARK  215  A    between atoms: _518  and  _520
REMARK  216  A    between atoms: _520  and  _521
REMARK  217  A    between atoms: _523  and  _525
REMARK  218  A    between atoms: _525  and  _526
REMARK  219  A    between atoms: _525  and  _528
REMARK  220  A    between atoms: _528  and  _529
REMARK  221  A    between atoms: _529  and  _530
REMARK  222  A    between atoms: _530  and  _531
REMARK  223  A    between atoms: _540  and  _542
REMARK  224  A    between atoms: _542  and  _543
REMARK  225  A    between atoms: _542  and  _545
REMARK  226  A    between atoms: _545  and  _546
REMARK  227  A    between atoms: _546  and  _547
REMARK  228  A    between atoms: _547  and  _548
REMARK  229  A    between atoms: _557  and  _559
REMARK  230  A    between atoms: _559  and  _560
REMARK  231  A    between atoms: _559  and  _562
REMARK  232  A    between atoms: _565  and  _567
REMARK  233  A    between atoms: _567  and  _568
REMARK  234  A    between atoms: _570  and  _572
REMARK  235  A    between atoms: _572  and  _573
REMARK  236  A    between atoms: _572  and  _575
REMARK  237  A    between atoms: _575  and  _576
REMARK  238  A    between atoms: _576  and  _577
REMARK  239  A    between atoms: _577  and  _578
REMARK  240  A    between atoms: _587  and  _589
REMARK  241  A    between atoms: _589  and  _590
REMARK  242  A    between atoms: _589  and  _592
REMARK  243  A    between atoms: _595  and  _597
REMARK  244  A    between atoms: _597  and  _598
REMARK  245  A    between atoms: _597  and  _600
REMARK  246  A    between atoms: _600  and  _601
REMARK  247  A    between atoms: _606  and  _607
REMARK  248  A    between atoms: _609  and  _611
REMARK  249  A    between atoms: _611  and  _612
REMARK  250  A    between atoms: _611  and  _614
REMARK  251  A    between atoms: _614  and  _615
REMARK  252  A    between atoms: _620  and  _622
REMARK  253  A    between atoms: _622  and  _623
REMARK  254  A    between atoms: _622  and  _625
REMARK  255  A    between atoms: _628  and  _630
REMARK  256  A    between atoms: _630  and  _631
REMARK  257  A    between atoms: _630  and  _633
REMARK  258  A    between atoms: _633  and  _634
REMARK  259  A    between atoms: _634  and  _635
REMARK  260  A    between atoms: _635  and  _636
REMARK  261  A    between atoms: _636  and  _637
REMARK  262  A    between atoms: _641  and  _643
REMARK  263  A    between atoms: _643  and  _644
REMARK  264  A    between atoms: _643  and  _646
REMARK  265  A    between atoms: _646  and  _647
REMARK  266  A    between atoms: _653  and  _655
REMARK  267  A    between atoms: _655  and  _656
REMARK  268  A    between atoms: _655  and  _658
REMARK  269  A    between atoms: _658  and  _659
REMARK  270  A    between atoms: _665  and  _666
REMARK  271  A    between atoms: _671  and  _673
REMARK  272  A    between atoms: _673  and  _674
REMARK  273  A    between atoms: _673  and  _676
REMARK  274  A    between atoms: _676  and  _677
REMARK  275  A    between atoms: _677  and  _678
REMARK  276  A    between atoms: _678  and  _679
REMARK  277  A    between atoms: _688  and  _690
REMARK  278  A    between atoms: _690  and  _691
REMARK  279  A    between atoms: _690  and  _693
REMARK  280  A    between atoms: _693  and  _694
REMARK  281  A    between atoms: _697  and  _699
REMARK  282  A    between atoms: _699  and  _700
REMARK  283  A    between atoms: _699  and  _702
REMARK  284  A    between atoms: _702  and  _703
REMARK  285  A    between atoms: _706  and  _708
REMARK  286  A    between atoms: _708  and  _709
REMARK  287  A    between atoms: _708  and  _711
REMARK  288  A    between atoms: _711  and  _712
REMARK  289  A    between atoms: _715  and  _717
REMARK  290  A    between atoms: _717  and  _718
REMARK  291  A    between atoms: _717  and  _720
REMARK  292  A    between atoms: _723  and  _725
REMARK  293  A    between atoms: _725  and  _726
REMARK  294  A    between atoms: _725  and  _728
REMARK  295  A    between atoms: _728  and  _729
REMARK  296  A    between atoms: _729  and  _730
REMARK  297  A    between atoms: _730  and  _731
REMARK  298  A    between atoms: _731  and  _732
REMARK  299  A    between atoms: _736  and  _738
REMARK  300  A    between atoms: _738  and  _739
REMARK  301  A    between atoms: _738  and  _741
REMARK  302  A    between atoms: _741  and  _742
REMARK  303  A    between atoms: _742  and  _743
REMARK  304  A    between atoms: _743  and  _744
REMARK  305  A    between atoms: _753  and  _755
REMARK  306  A    between atoms: _755  and  _756
REMARK  307  A    between atoms: _755  and  _758
REMARK  308  A    between atoms: _758  and  _759
REMARK  309  A    between atoms: _762  and  _764
REMARK  310  A    between atoms: _764  and  _765
REMARK  311  A    between atoms: _764  and  _767
REMARK  312  A    between atoms: _767  and  _768
REMARK  313  A    between atoms: _768  and  _769
REMARK  314  A    between atoms: _772  and  _774
REMARK  315  A    between atoms: _774  and  _775
REMARK  316  A    between atoms: _774  and  _777
REMARK  317  A    between atoms: _777  and  _778
REMARK  318  A    between atoms: _788  and  _790
REMARK  319  A    between atoms: _790  and  _791
REMARK  320  A    between atoms: _790  and  _793
REMARK  321  A    between atoms: _793  and  _794
REMARK  322  A    between atoms: _797  and  _799
REMARK  323  A    between atoms: _799  and  _800
REMARK  324  A    between atoms: _799  and  _802
REMARK  325  A    between atoms: _802  and  _803
REMARK  326  A    between atoms: _806  and  _808
REMARK  327  A    between atoms: _808  and  _809
REMARK  328  A    between atoms: _811  and  _813
REMARK  329  A    between atoms: _813  and  _814
REMARK  330  A    between atoms: _813  and  _816
REMARK  331  A    between atoms: _816  and  _817
REMARK  332  A    between atoms: _820  and  _822
REMARK  333  A    between atoms: _822  and  _823
REMARK  334  A    between atoms: _822  and  _825
REMARK  335  A    between atoms: _825  and  _826
REMARK  336  A    between atoms: _826  and  _827
REMARK  337  A    between atoms: _827  and  _828
REMARK  338  A    between atoms: _828  and  _829
REMARK  339  A    between atoms: _834  and  _835
REMARK  340  A    between atoms: _840  and  _842
REMARK  341  A    between atoms: _842  and  _843
REMARK  342  A    between atoms: _842  and  _845
REMARK  343  A    between atoms: _848  and  _850
REMARK  344  A    between atoms: _850  and  _851
REMARK  345  A    between atoms: _854  and  _856
REMARK  346  A    between atoms: _856  and  _857
REMARK  347  A    between atoms: _856  and  _859
REMARK  348  A    between atoms: _859  and  _860
REMARK  349  A    between atoms: _860  and  _861
REMARK  350  A    between atoms: _864  and  _866
REMARK  351  A    between atoms: _866  and  _867
REMARK  352  A    between atoms: _866  and  _869
REMARK  353  A    between atoms: _872  and  _874
REMARK  354  A    between atoms: _874  and  _875
REMARK  355  A    between atoms: _874  and  _877
REMARK  356  A    between atoms: _877  and  _878
REMARK  357  A    between atoms: _878  and  _879
REMARK  358  A    between atoms: _879  and  _880
REMARK                            x       y       z     vdW  Elec       q    Type
REMARK                         _______ _______ _______ _____ _____    ______ ____
ROOT
ATOM      1  CB  PHE A   1     -13.101  12.553 -40.155  0.00  0.00    +0.051 C 
ENDROOT
BRANCH   1   2
ATOM      2  CG  PHE A   1     -12.128  12.876 -39.053  0.00  0.00    -0.020 A 
ATOM      3  CD2 PHE A   1     -12.177  12.189 -37.851  0.00  0.00    -0.004 A 
ATOM      4  CE2 PHE A   1     -11.291  12.485 -36.831  0.00  0.00    -0.000 A 
ATOM      5  CZ  PHE A   1     -10.348  13.478 -37.003  0.00  0.00    -0.000 A 
ATOM      6  CE1 PHE A   1     -10.291  14.176 -38.194  0.00  0.00    -0.000 A 
ATOM      7  CD1 PHE A   1     -11.179  13.877 -39.209  0.00  0.00    -0.004 A 
ENDBRANCH   1   2
BRANCH   1   8
ATOM      8  CA  PHE A   1     -12.439  12.092 -41.458  0.00  0.00    +0.137 C 
BRANCH   8   9
ATOM      9  N   PHE A   1     -11.730  13.196 -42.100  0.00  0.00    -0.239 NA
ATOM     10  H   PHE A   1     -12.174  14.136 -42.119  0.00  0.00    +0.142 HD
ENDBRANCH   8   9
BRANCH   8  11
ATOM     11  C   PHE A   1     -13.492  11.521 -42.401  0.00  0.00    +0.224 C 
ATOM     12  O   PHE A   1     -14.470  12.195 -42.729  0.00  0.00    -0.287 OA
ENDBRANCH   8  11
ENDBRANCH   1   8
TORSDOF 4
REMARK  Name = ../refined-set-2016/4x8o/4x8o_pocket.pdb
REMARK  358 active torsions:
REMARK  status: ('A' for Active; 'I' for Inactive)
REMARK    1  A    between atoms: _1  and  _3
REMARK    2  A    between atoms: _3  and  _4
REMARK    3  A    between atoms: _3  and  _6
REMARK    4  A    between atoms: _6  and  _7
REMARK    5  A    between atoms: _10  and  _12
REMARK    6  A    between atoms: _12  and  _13
REMARK    7  A    between atoms: _12  and  _15
REMARK    8  A    between atoms: _15  and  _16
REMARK    9  A    between atoms: _19  and  _21
REMARK   10  A    between atoms: _21  and  _22
REMARK   11  A    between atoms: _24  and  _26
REMARK   12  A    between atoms: _26  and  _27
REMARK   13  A    between atoms: _31  and  _32
REMARK   14  A    between atoms: _37  and  _39
REMARK   15  A    between atoms: _39  and  _40
REMARK   16  A    between atoms: _42  and  _44
REMARK   17  A    between atoms: _44  and  _45
REMARK   18  A    between atoms: _48  and  _50
REMARK   19  A    between atoms: _50  and  _51
REMARK   20  A    between atoms: _53  and  _55
REMARK   21  A    between atoms: _55  and  _56
REMARK   22  A    between atoms: _55  and  _58
REMARK   23  A    between atoms: _58  and  _59
REMARK   24  A    between atoms: _59  and  _60
REMARK   25  A    between atoms: _60  and  _61
REMARK   26  A    between atoms: _61  and  _62
REMARK   27  A    between atoms: _66  and  _68
REMARK   28  A    between atoms: _68  and  _69
REMARK   29  A    between atoms: _71  and  _73
REMARK   30  A    between atoms: _73  and  _74
REMARK   31  A    between atoms: _73  and  _76
REMARK   32  A    between atoms: _76  and  _77
REMARK   33  A    between atoms: _80  and  _82
REMARK   34  A    between atoms: _82  and  _83
REMARK   35  A    between atoms: _82  and  _85
REMARK   36  A    between atoms: _85  and  _86
REMARK   37  A    between atoms: _86  and  _87
REMARK   38  A    between atoms: _92  and  _94
REMARK   39  A    between atoms: _94  and  _95
REMARK   40  A    between atoms: _98  and  _100
REMARK   41  A    between atoms: _100  and  _101
REMARK   42  A    between atoms: _100  and  _103
REMARK   43  A    between atoms: _103  and  _104
REMARK   44  A    between atoms: _104  and  _105
REMARK   45  A    between atoms: _110  and  _112
REMARK   46  A    between atoms: _112  and  _113
REMARK   47  A    between atoms: _112  and  _115
REMARK   48  A    between atoms: _115  and  _116
REMARK   49  A    between atoms: _122  and  _124
REMARK   50  A    between atoms: _124  and  _125
REMARK   51  A    between atoms: _124  and  _127
REMARK   52  A    between atoms: _127  and  _128
REMARK   53  A    between atoms: _128  and  _129
REMARK   54  A    between atoms: _134  and  _136
REMARK   55  A    between atoms: _136  and  _137
REMARK   56  A    between atoms: _136  and  _139
REMARK   57  A    between atoms: _139  and  _140
REMARK   58  A    between atoms: _142  and  _144
REMARK   59  A    between atoms: _144  and  _145
REMARK   60  A    between atoms: _144  and  _147
REMARK   61  A    between atoms: _147  and  _148
REMARK   62  A    between atoms: _151  and  _153
REMARK   63  A    between atoms: _153  and  _154
REMARK   64  A    between atoms: _156  and  _158
REMARK   65  A    between atoms: _158  and  _159
REMARK   66  A    between atoms: _158  and  _161
REMARK   67  A    between atoms: _161  and  _162
REMARK   68  A    between atoms: _165  and  _167
REMARK   69  A    between atoms: _167  and  _168
REMARK   70  A    between atoms: _167  and  _170
REMARK   71  A    between atoms: _170  and  _171
REMARK   72  A    between atoms: _171  and  _172
REMARK   73  A    between atoms: _174  and  _176
REMARK   74  A    between atoms: _176  and  _177
REMARK   75  A    between atoms: _176  and  _179
REMARK   76  A    between atoms: _179  and  _180
REMARK   77  A    between atoms: _183  and  _185
REMARK   78  A    between atoms: _185  and  _186
REMARK   79  A    between atoms: _185  and  _188
REMARK   80  A    between atoms: _188  and  _189
REMARK   81  A    between atoms: _189  and  _190
REMARK   82  A    between atoms: _190  and  _191
REMARK   83  A    between atoms: _200  and  _202
REMARK   84  A    between atoms: _202  and  _203
REMARK   85  A    between atoms: _206  and  _208
REMARK   86  A    between atoms: _208  and  _209
REMARK   87  A    between atoms: _208  and  _211
REMARK   88  A    between atoms: _211  and  _212
REMARK   89  A    between atoms: _212  and  _213
REMARK   90  A    between atoms: _213  and  _214
REMARK   91  A    between atoms: _214  and  _215
REMARK   92  A    between atoms: _219  and  _221
REMARK   93  A    between atoms: _221  and  _222
REMARK   94  A    between atoms: _221  and  _224
REMARK   95  A    between atoms: _224  and  _225
REMARK   96  A    between atoms: _228  and  _230
REMARK   97  A    between atoms: _230  and  _231
REMARK   98  A    between atoms: _230  and  _233
REMARK   99  A    between atoms: _233  and  _234
REMARK  100  A    between atoms: _237  and  _239
REMARK  101  A    between atoms: _239  and  _240
REMARK  102  A    between atoms: _239  and  _242
REMARK  103  A    between atoms: _242  and  _243
REMARK  104  A    between atoms: _243  and  _244
REMARK  105  A    between atoms: _246  and  _248
REMARK  106  A    between atoms: _248  and  _249
REMARK  107  A    between atoms: _248  and  _251
REMARK  108  A    between atoms: _251  and  _252
REMARK  109  A    between atoms: _255  and  _257
REMARK  110  A    between atoms: _257  and  _258
REMARK  111  A    between atoms: _261  and  _263
REMARK  112  A    between atoms: _263  and  _264
REMARK  113  A    between atoms: _266  and  _268
REMARK  114  A    between atoms: _268  and  _269
REMARK  115  A    between atoms: _268  and  _271
REMARK  116  A    between atoms: _271  and  _272
REMARK  117  A    between atoms: _272  and  _273
REMARK  118  A    between atoms: _273  and  _274
REMARK  119  A    between atoms: _274  and  _275
REMARK  120  A    between atoms: _279  and  _281
REMARK  121  A    between atoms: _281  and  _282
REMARK  122  A    between atoms: _281  and  _284
REMARK  123  A    between atoms: _284  and  _285
REMARK  124  A    between atoms: _288  and  _290
REMARK  125  A    between atoms: _290  and  _291
REMARK  126  A    between atoms: _290  and  _293
REMARK  127  A    between atoms: _296  and  _298
REMARK  128  A    between atoms: _298  and  _299
REMARK  129  A    between atoms: _298  and  _301
REMARK  130  A    between atoms: _301  and  _302
REMARK  131  A    between atoms: _305  and  _307
REMARK  132  A    between atoms: _307  and  _308
REMARK  133  A    between atoms: _307  and  _310
REMARK  134  A    between atoms: _310  and  _311
REMARK  135  A    between atoms: _314  and  _316
REMARK  136  A    between atoms: _316  and  _317
REMARK  137  A    between atoms: _316  and  _319
REMARK  138  A    between atoms: _319  and  _320
REMARK  139  A    between atoms: _320  and  _321
REMARK  140  A    between atoms: _324  and  _326
REMARK  141  A    between atoms: _326  and  _327
REMARK  142  A    between atoms: _326  and  _329
REMARK  143  A    between atoms: _329  and  _330
REMARK  144  A    between atoms: _333  and  _335
REMARK  145  A    between atoms: _335  and  _336
REMARK  146  A    between atoms: _335  and  _338
REMARK  147  A    between atoms: _341  and  _343
REMARK  148  A    between atoms: _343  and  _344
REMARK  149  A    between atoms: _343  and  _346
REMARK  150  A    between atoms: _346  and  _347
REMARK  151  A    between atoms: _350  and  _352
REMARK  152  A    between atoms: _352  and  _353
REMARK  153  A    between atoms: _352  and  _355
REMARK  154  A    between atoms: _358  and  _360
REMARK  155  A    between atoms: _360  and  _361
REMARK  156  A    between atoms: _360  and  _363
REMARK  157  A    between atoms: _363  and  _364
REMARK  158  A    between atoms: _367  and  _369
REMARK  159  A    between atoms: _369  and  _370
REMARK  160  A    between atoms: _372  and  _374
REMARK  161  A    between atoms: _374  and  _375
REMARK  162  A    between atoms: _374  and  _377
REMARK  163  A    between atoms: _377  and  _378
REMARK  164  A    between atoms: _385  and  _386
REMARK  165  A    between atoms: _391  and  _393
REMARK  166  A    between atoms: _393  and  _394
REMARK  167  A    between atoms: _393  and  _396
REMARK  168  A    between atoms: _396  and  _397
REMARK  169  A    between atoms: _397  and  _398
REMARK  170  A    between atoms: _398  and  _399
REMARK  171  A    between atoms: _408  and  _410
REMARK  172  A    between atoms: _410  and  _411
REMARK  173  A    between atoms: _410  and  _413
REMARK  174  A    between atoms: _413  and  _414
REMARK  175  A    between atoms: _417  and  _419
REMARK  176  A    between atoms: _419  and  _420
REMARK  177  A    between atoms: _419  and  _422
REMARK  178  A    between atoms: _422  and  _423
REMARK  179  A    between atoms: _423  and  _424
REMARK  180  A    between atoms: _429  and  _431
REMARK  181  A    between atoms: _431  and  _432
REMARK  182  A    between atoms: _431  and  _434
REMARK  183  A    between atoms: _434  and  _435
REMARK  184  A    between atoms: _441  and  _443
REMARK  185  A    between atoms: _443  and  _444
REMARK  186  A    between atoms: _443  and  _446
REMARK  187  A    between atoms: _449  and  _451
REMARK  188  A    between atoms: _451  and  _452
REMARK  189  A    between atoms: _451  and  _454
REMARK  190  A    between atoms: _454  and  _455
REMARK  191  A    between atoms: _458  and  _460
REMARK  192  A    between atoms: _460  and  _461
REMARK  193  A    between atoms: _460  and  _463
REMARK  194  A    between atoms: _463  and  _464
REMARK  195  A    between atoms: _467  and  _469
REMARK  196  A    between atoms: _469  and  _470
REMARK  197  A    between atoms: _469  and  _472
REMARK  198  A    between atoms: _475  and  _477
REMARK  199  A    between atoms: _477  and  _478
REMARK  200  A    between atoms: _477  and  _480
REMARK  201  A    between atoms: _480  and  _481
REMARK  202  A    between atoms: _484  and  _486
REMARK  203  A    between atoms: _486  and  _487
REMARK  204  A    between atoms: _486  and  _489
REMARK  205  A    between atoms: _489  and  _490
REMARK  206  A    between atoms: _490  and  _491
REMARK  207  A    between atoms: _491  and  _492
REMARK  208  A    between atoms: _501  and  _503
REMARK  209  A    between atoms: _503  and  _504
REMARK  210  A    between atoms: _503  and  _506
REMARK  211  A    between atoms: _506  and  _507
REMARK  212  A    between atoms: _510  and  _512
REMARK  213  A    between atoms: _512  and  _513
REMARK  214  A    between atoms: _512  and  _515
REMARK  215  A    between atoms: _518  and  _520
REMARK  216  A    between atoms: _520  and  _521
REMARK  217  A    between atoms: _523  and  _525
REMARK  218  A    between atoms: _525  and  _526
REMARK  219  A    between atoms: _525  and  _528
REMARK  220  A    between atoms: _528  and  _529
REMARK  221  A    between atoms: _529  and  _530
REMARK  222  A    between atoms: _530  and  _531
REMARK  223  A    between atoms: _540  and  _542
REMARK  224  A    between atoms: _542  and  _543
REMARK  225  A    between atoms: _542  and  _545
REMARK  226  A    between atoms: _545  and  _546
REMARK  227  A    between atoms: _546  and  _547
REMARK  228  A    between atoms: _547  and  _548
REMARK  229  A    between atoms: _557  and  _559
REMARK  230  A    between atoms: _559  and  _560
REMARK  231  A    between atoms: _559  and  _562
REMARK  232  A    between atoms: _565  and  _567
REMARK  233  A    between atoms: _567  and  _568
REMARK  234  A    between atoms: _570  and  _572
REMARK  235  A    between atoms: _572  and  _573
REMARK  236  A    between atoms: _572  and  _575
REMARK  237  A    between atoms: _575  and  _576
REMARK  238  A    between atoms: _576  and  _577
REMARK  239  A    between atoms: _577  and  _578
REMARK  240  A    between atoms: _587  and  _589
REMARK  241  A    between atoms: _589  and  _590
REMARK  242  A    between atoms: _589  and  _592
REMARK  243  A    between atoms: _595  and  _597
REMARK  244  A    between atoms: _597  and  _598
REMARK  245  A    between atoms: _597  and  _600
REMARK  246  A    between atoms: _600  and  _601
REMARK  247  A    between atoms: _606  and  _607
REMARK  248  A    between atoms: _609  and  _611
REMARK  249  A    between atoms: _611  and  _612
REMARK  250  A    between atoms: _611  and  _614
REMARK  251  A    between atoms: _614  and  _615
REMARK  252  A    between atoms: _620  and  _622
REMARK  253  A    between atoms: _622  and  _623
REMARK  254  A    between atoms: _622  and  _625
REMARK  255  A    between atoms: _628  and  _630
REMARK  256  A    between atoms: _630  and  _631
REMARK  257  A    between atoms: _630  and  _633
REMARK  258  A    between atoms: _633  and  _634
REMARK  259  A    between atoms: _634  and  _635
REMARK  260  A    between atoms: _635  and  _636
REMARK  261  A    between atoms: _636  and  _637
REMARK  262  A    between atoms: _641  and  _643
REMARK  263  A    between atoms: _643  and  _644
REMARK  264  A    between atoms: _643  and  _646
REMARK  265  A    between atoms: _646  and  _647
REMARK  266  A    between atoms: _653  and  _655
REMARK  267  A    between atoms: _655  and  _656
REMARK  268  A    between atoms: _655  and  _658
REMARK  269  A    between atoms: _658  and  _659
REMARK  270  A    between atoms: _665  and  _666
REMARK  271  A    between atoms: _671  and  _673
REMARK  272  A    between atoms: _673  and  _674
REMARK  273  A    between atoms: _673  and  _676
REMARK  274  A    between atoms: _676  and  _677
REMARK  275  A    between atoms: _677  and  _678
REMARK  276  A    between atoms: _678  and  _679
REMARK  277  A    between atoms: _688  and  _690
REMARK  278  A    between atoms: _690  and  _691
REMARK  279  A    between atoms: _690  and  _693
REMARK  280  A    between atoms: _693  and  _694
REMARK  281  A    between atoms: _697  and  _699
REMARK  282  A    between atoms: _699  and  _700
REMARK  283  A    between atoms: _699  and  _702
REMARK  284  A    between atoms: _702  and  _703
REMARK  285  A    between atoms: _706  and  _708
REMARK  286  A    between atoms: _708  and  _709
REMARK  287  A    between atoms: _708  and  _711
REMARK  288  A    between atoms: _711  and  _712
REMARK  289  A    between atoms: _715  and  _717
REMARK  290  A    between atoms: _717  and  _718
REMARK  291  A    between atoms: _717  and  _720
REMARK  292  A    between atoms: _723  and  _725
REMARK  293  A    between atoms: _725  and  _726
REMARK  294  A    between atoms: _725  and  _728
REMARK  295  A    between atoms: _728  and  _729
REMARK  296  A    between atoms: _729  and  _730
REMARK  297  A    between atoms: _730  and  _731
REMARK  298  A    between atoms: _731  and  _732
REMARK  299  A    between atoms: _736  and  _738
REMARK  300  A    between atoms: _738  and  _739
REMARK  301  A    between atoms: _738  and  _741
REMARK  302  A    between atoms: _741  and  _742
REMARK  303  A    between atoms: _742  and  _743
REMARK  304  A    between atoms: _743  and  _744
REMARK  305  A    between atoms: _753  and  _755
REMARK  306  A    between atoms: _755  and  _756
REMARK  307  A    between atoms: _755  and  _758
REMARK  308  A    between atoms: _758  and  _759
REMARK  309  A    between atoms: _762  and  _764
REMARK  310  A    between atoms: _764  and  _765
REMARK  311  A    between atoms: _764  and  _767
REMARK  312  A    between atoms: _767  and  _768
REMARK  313  A    between atoms: _768  and  _769
REMARK  314  A    between atoms: _772  and  _774
REMARK  315  A    between atoms: _774  and  _775
REMARK  316  A    between atoms: _774  and  _777
REMARK  317  A    between atoms: _777  and  _778
REMARK  318  A    between atoms: _788  and  _790
REMARK  319  A    between atoms: _790  and  _791
REMARK  320  A    between atoms: _790  and  _793
REMARK  321  A    between atoms: _793  and  _794
REMARK  322  A    between atoms: _797  and  _799
REMARK  323  A    between atoms: _799  and  _800
REMARK  324  A    between atoms: _799  and  _802
REMARK  325  A    between atoms: _802  and  _803
REMARK  326  A    between atoms: _806  and  _808
REMARK  327  A    between atoms: _808  and  _809
REMARK  328  A    between atoms: _811  and  _813
REMARK  329  A    between atoms: _813  and  _814
REMARK  330  A    between atoms: _813  and  _816
REMARK  331  A    between atoms: _816  and  _817
REMARK  332  A    between atoms: _820  and  _822
REMARK  333  A    between atoms: _822  and  _823
REMARK  334  A    between atoms: _822  and  _825
REMARK  335  A    between atoms: _825  and  _826
REMARK  336  A    between atoms: _826  and  _827
REMARK  337  A    between atoms: _827  and  _828
REMARK  338  A    between atoms: _828  and  _829
REMARK  339  A    between atoms: _834  and  _835
REMARK  340  A    between atoms: _840  and  _842
REMARK  341  A    between atoms: _842  and  _843
REMARK  342  A    between atoms: _842  and  _845
REMARK  343  A    between atoms: _848  and  _850
REMARK  344  A    between atoms: _850  and  _851
REMARK  345  A    between atoms: _854  and  _856
REMARK  346  A    between atoms: _856  and  _857
REMARK  347  A    between atoms: _856  and  _859
REMARK  348  A    between atoms: _859  and  _860
REMARK  349  A    between atoms: _860  and  _861
REMARK  350  A    between atoms: _864  and  _866
REMARK  351  A    between atoms: _866  and  _867
REMARK  352  A    between atoms: _866  and  _869
REMARK  353  A    between atoms: _872  and  _874
REMARK  354  A    between atoms: _874  and  _875
REMARK  355  A    between atoms: _874  and  _877
REMARK  356  A    between atoms: _877  and  _878
REMARK  357  A    between atoms: _878  and  _879
REMARK  358  A    between atoms: _879  and  _880
REMARK                            x       y       z     vdW  Elec       q    Type
REMARK                         _______ _______ _______ _____ _____    ______ ____
ROOT
ATOM      1  CA  VAL A   1     -17.596   8.139 -43.090  0.00  0.00    +0.133 C 
ENDROOT
BRANCH   1   2
ATOM      2  CB  VAL A   1     -18.182   8.593 -41.728  0.00  0.00    +0.023 C 
ATOM      3  CG2 VAL A   1     -17.258   8.205 -40.578  0.00  0.00    +0.002 C 
ATOM      4  CG1 VAL A   1     -19.574   8.023 -41.514  0.00  0.00    +0.002 C 
ENDBRANCH   1   2
BRANCH   1   5
ATOM      5  N   VAL A   1     -16.500   9.004 -43.519  0.00  0.00    -0.239 NA
ATOM      6  H   VAL A   1     -16.726   9.859 -44.066  0.00  0.00    +0.142 HD
ENDBRANCH   1   5
BRANCH   1   7
ATOM      7  C   VAL A   1     -18.690   8.149 -44.158  0.00  0.00    +0.224 C 
ATOM      8  O   VAL A   1     -19.045   9.215 -44.659  0.00  0.00    -0.287 OA
ENDBRANCH   1   7
TORSDOF 3
REMARK  Name = ../refined-set-2016/4x8o/4x8o_pocket.pdb
REMARK  358 active torsions:
REMARK  status: ('A' for Active; 'I' for Inactive)
REMARK    1  A    between atoms: _1  and  _3
REMARK    2  A    between atoms: _3  and  _4
REMARK    3  A    between atoms: _3  and  _6
REMARK    4  A    between atoms: _6  and  _7
REMARK    5  A    between atoms: _10  and  _12
REMARK    6  A    between atoms: _12  and  _13
REMARK    7  A    between atoms: _12  and  _15
REMARK    8  A    between atoms: _15  and  _16
REMARK    9  A    between atoms: _19  and  _21
REMARK   10  A    between atoms: _21  and  _22
REMARK   11  A    between atoms: _24  and  _26
REMARK   12  A    between atoms: _26  and  _27
REMARK   13  A    between atoms: _31  and  _32
REMARK   14  A    between atoms: _37  and  _39
REMARK   15  A    between atoms: _39  and  _40
REMARK   16  A    between atoms: _42  and  _44
REMARK   17  A    between atoms: _44  and  _45
REMARK   18  A    between atoms: _48  and  _50
REMARK   19  A    between atoms: _50  and  _51
REMARK   20  A    between atoms: _53  and  _55
REMARK   21  A    between atoms: _55  and  _56
REMARK   22  A    between atoms: _55  and  _58
REMARK   23  A    between atoms: _58  and  _59
REMARK   24  A    between atoms: _59  and  _60
REMARK   25  A    between atoms: _60  and  _61
REMARK   26  A    between atoms: _61  and  _62
REMARK   27  A    between atoms: _66  and  _68
REMARK   28  A    between atoms: _68  and  _69
REMARK   29  A    between atoms: _71  and  _73
REMARK   30  A    between atoms: _73  and  _74
REMARK   31  A    between atoms: _73  and  _76
REMARK   32  A    between atoms: _76  and  _77
REMARK   33  A    between atoms: _80  and  _82
REMARK   34  A    between atoms: _82  and  _83
REMARK   35  A    between atoms: _82  and  _85
REMARK   36  A    between atoms: _85  and  _86
REMARK   37  A    between atoms: _86  and  _87
REMARK   38  A    between atoms: _92  and  _94
REMARK   39  A    between atoms: _94  and  _95
REMARK   40  A    between atoms: _98  and  _100
REMARK   41  A    between atoms: _100  and  _101
REMARK   42  A    between atoms: _100  and  _103
REMARK   43  A    between atoms: _103  and  _104
REMARK   44  A    between atoms: _104  and  _105
REMARK   45  A    between atoms: _110  and  _112
REMARK   46  A    between atoms: _112  and  _113
REMARK   47  A    between atoms: _112  and  _115
REMARK   48  A    between atoms: _115  and  _116
REMARK   49  A    between atoms: _122  and  _124
REMARK   50  A    between atoms: _124  and  _125
REMARK   51  A    between atoms: _124  and  _127
REMARK   52  A    between atoms: _127  and  _128
REMARK   53  A    between atoms: _128  and  _129
REMARK   54  A    between atoms: _134  and  _136
REMARK   55  A    between atoms: _136  and  _137
REMARK   56  A    between atoms: _136  and  _139
REMARK   57  A    between atoms: _139  and  _140
REMARK   58  A    between atoms: _142  and  _144
REMARK   59  A    between atoms: _144  and  _145
REMARK   60  A    between atoms: _144  and  _147
REMARK   61  A    between atoms: _147  and  _148
REMARK   62  A    between atoms: _151  and  _153
REMARK   63  A    between atoms: _153  and  _154
REMARK   64  A    between atoms: _156  and  _158
REMARK   65  A    between atoms: _158  and  _159
REMARK   66  A    between atoms: _158  and  _161
REMARK   67  A    between atoms: _161  and  _162
REMARK   68  A    between atoms: _165  and  _167
REMARK   69  A    between atoms: _167  and  _168
REMARK   70  A    between atoms: _167  and  _170
REMARK   71  A    between atoms: _170  and  _171
REMARK   72  A    between atoms: _171  and  _172
REMARK   73  A    between atoms: _174  and  _176
REMARK   74  A    between atoms: _176  and  _177
REMARK   75  A    between atoms: _176  and  _179
REMARK   76  A    between atoms: _179  and  _180
REMARK   77  A    between atoms: _183  and  _185
REMARK   78  A    between atoms: _185  and  _186
REMARK   79  A    between atoms: _185  and  _188
REMARK   80  A    between atoms: _188  and  _189
REMARK   81  A    between atoms: _189  and  _190
REMARK   82  A    between atoms: _190  and  _191
REMARK   83  A    between atoms: _200  and  _202
REMARK   84  A    between atoms: _202  and  _203
REMARK   85  A    between atoms: _206  and  _208
REMARK   86  A    between atoms: _208  and  _209
REMARK   87  A    between atoms: _208  and  _211
REMARK   88  A    between atoms: _211  and  _212
REMARK   89  A    between atoms: _212  and  _213
REMARK   90  A    between atoms: _213  and  _214
REMARK   91  A    between atoms: _214  and  _215
REMARK   92  A    between atoms: _219  and  _221
REMARK   93  A    between atoms: _221  and  _222
REMARK   94  A    between atoms: _221  and  _224
REMARK   95  A    between atoms: _224  and  _225
REMARK   96  A    between atoms: _228  and  _230
REMARK   97  A    between atoms: _230  and  _231
REMARK   98  A    between atoms: _230  and  _233
REMARK   99  A    between atoms: _233  and  _234
REMARK  100  A    between atoms: _237  and  _239
REMARK  101  A    between atoms: _239  and  _240
REMARK  102  A    between atoms: _239  and  _242
REMARK  103  A    between atoms: _242  and  _243
REMARK  104  A    between atoms: _243  and  _244
REMARK  105  A    between atoms: _246  and  _248
REMARK  106  A    between atoms: _248  and  _249
REMARK  107  A    between atoms: _248  and  _251
REMARK  108  A    between atoms: _251  and  _252
REMARK  109  A    between atoms: _255  and  _257
REMARK  110  A    between atoms: _257  and  _258
REMARK  111  A    between atoms: _261  and  _263
REMARK  112  A    between atoms: _263  and  _264
REMARK  113  A    between atoms: _266  and  _268
REMARK  114  A    between atoms: _268  and  _269
REMARK  115  A    between atoms: _268  and  _271
REMARK  116  A    between atoms: _271  and  _272
REMARK  117  A    between atoms: _272  and  _273
REMARK  118  A    between atoms: _273  and  _274
REMARK  119  A    between atoms: _274  and  _275
REMARK  120  A    between atoms: _279  and  _281
REMARK  121  A    between atoms: _281  and  _282
REMARK  122  A    between atoms: _281  and  _284
REMARK  123  A    between atoms: _284  and  _285
REMARK  124  A    between atoms: _288  and  _290
REMARK  125  A    between atoms: _290  and  _291
REMARK  126  A    between atoms: _290  and  _293
REMARK  127  A    between atoms: _296  and  _298
REMARK  128  A    between atoms: _298  and  _299
REMARK  129  A    between atoms: _298  and  _301
REMARK  130  A    between atoms: _301  and  _302
REMARK  131  A    between atoms: _305  and  _307
REMARK  132  A    between atoms: _307  and  _308
REMARK  133  A    between atoms: _307  and  _310
REMARK  134  A    between atoms: _310  and  _311
REMARK  135  A    between atoms: _314  and  _316
REMARK  136  A    between atoms: _316  and  _317
REMARK  137  A    between atoms: _316  and  _319
REMARK  138  A    between atoms: _319  and  _320
REMARK  139  A    between atoms: _320  and  _321
REMARK  140  A    between atoms: _324  and  _326
REMARK  141  A    between atoms: _326  and  _327
REMARK  142  A    between atoms: _326  and  _329
REMARK  143  A    between atoms: _329  and  _330
REMARK  144  A    between atoms: _333  and  _335
REMARK  145  A    between atoms: _335  and  _336
REMARK  146  A    between atoms: _335  and  _338
REMARK  147  A    between atoms: _341  and  _343
REMARK  148  A    between atoms: _343  and  _344
REMARK  149  A    between atoms: _343  and  _346
REMARK  150  A    between atoms: _346  and  _347
REMARK  151  A    between atoms: _350  and  _352
REMARK  152  A    between atoms: _352  and  _353
REMARK  153  A    between atoms: _352  and  _355
REMARK  154  A    between atoms: _358  and  _360
REMARK  155  A    between atoms: _360  and  _361
REMARK  156  A    between atoms: _360  and  _363
REMARK  157  A    between atoms: _363  and  _364
REMARK  158  A    between atoms: _367  and  _369
REMARK  159  A    between atoms: _369  and  _370
REMARK  160  A    between atoms: _372  and  _374
REMARK  161  A    between atoms: _374  and  _375
REMARK  162  A    between atoms: _374  and  _377
REMARK  163  A    between atoms: _377  and  _378
REMARK  164  A    between atoms: _385  and  _386
REMARK  165  A    between atoms: _391  and  _393
REMARK  166  A    between atoms: _393  and  _394
REMARK  167  A    between atoms: _393  and  _396
REMARK  168  A    between atoms: _396  and  _397
REMARK  169  A    between atoms: _397  and  _398
REMARK  170  A    between atoms: _398  and  _399
REMARK  171  A    between atoms: _408  and  _410
REMARK  172  A    between atoms: _410  and  _411
REMARK  173  A    between atoms: _410  and  _413
REMARK  174  A    between atoms: _413  and  _414
REMARK  175  A    between atoms: _417  and  _419
REMARK  176  A    between atoms: _419  and  _420
REMARK  177  A    between atoms: _419  and  _422
REMARK  178  A    between atoms: _422  and  _423
REMARK  179  A    between atoms: _423  and  _424
REMARK  180  A    between atoms: _429  and  _431
REMARK  181  A    between atoms: _431  and  _432
REMARK  182  A    between atoms: _431  and  _434
REMARK  183  A    between atoms: _434  and  _435
REMARK  184  A    between atoms: _441  and  _443
REMARK  185  A    between atoms: _443  and  _444
REMARK  186  A    between atoms: _443  and  _446
REMARK  187  A    between atoms: _449  and  _451
REMARK  188  A    between atoms: _451  and  _452
REMARK  189  A    between atoms: _451  and  _454
REMARK  190  A    between atoms: _454  and  _455
REMARK  191  A    between atoms: _458  and  _460
REMARK  192  A    between atoms: _460  and  _461
REMARK  193  A    between atoms: _460  and  _463
REMARK  194  A    between atoms: _463  and  _464
REMARK  195  A    between atoms: _467  and  _469
REMARK  196  A    between atoms: _469  and  _470
REMARK  197  A    between atoms: _469  and  _472
REMARK  198  A    between atoms: _475  and  _477
REMARK  199  A    between atoms: _477  and  _478
REMARK  200  A    between atoms: _477  and  _480
REMARK  201  A    between atoms: _480  and  _481
REMARK  202  A    between atoms: _484  and  _486
REMARK  203  A    between atoms: _486  and  _487
REMARK  204  A    between atoms: _486  and  _489
REMARK  205  A    between atoms: _489  and  _490
REMARK  206  A    between atoms: _490  and  _491
REMARK  207  A    between atoms: _491  and  _492
REMARK  208  A    between atoms: _501  and  _503
REMARK  209  A    between atoms: _503  and  _504
REMARK  210  A    between atoms: _503  and  _506
REMARK  211  A    between atoms: _506  and  _507
REMARK  212  A    between atoms: _510  and  _512
REMARK  213  A    between atoms: _512  and  _513
REMARK  214  A    between atoms: _512  and  _515
REMARK  215  A    between atoms: _518  and  _520
REMARK  216  A    between atoms: _520  and  _521
REMARK  217  A    between atoms: _523  and  _525
REMARK  218  A    between atoms: _525  and  _526
REMARK  219  A    between atoms: _525  and  _528
REMARK  220  A    between atoms: _528  and  _529
REMARK  221  A    between atoms: _529  and  _530
REMARK  222  A    between atoms: _530  and  _531
REMARK  223  A    between atoms: _540  and  _542
REMARK  224  A    between atoms: _542  and  _543
REMARK  225  A    between atoms: _542  and  _545
REMARK  226  A    between atoms: _545  and  _546
REMARK  227  A    between atoms: _546  and  _547
REMARK  228  A    between atoms: _547  and  _548
REMARK  229  A    between atoms: _557  and  _559
REMARK  230  A    between atoms: _559  and  _560
REMARK  231  A    between atoms: _559  and  _562
REMARK  232  A    between atoms: _565  and  _567
REMARK  233  A    between atoms: _567  and  _568
REMARK  234  A    between atoms: _570  and  _572
REMARK  235  A    between atoms: _572  and  _573
REMARK  236  A    between atoms: _572  and  _575
REMARK  237  A    between atoms: _575  and  _576
REMARK  238  A    between atoms: _576  and  _577
REMARK  239  A    between atoms: _577  and  _578
REMARK  240  A    between atoms: _587  and  _589
REMARK  241  A    between atoms: _589  and  _590
REMARK  242  A    between atoms: _589  and  _592
REMARK  243  A    between atoms: _595  and  _597
REMARK  244  A    between atoms: _597  and  _598
REMARK  245  A    between atoms: _597  and  _600
REMARK  246  A    between atoms: _600  and  _601
REMARK  247  A    between atoms: _606  and  _607
REMARK  248  A    between atoms: _609  and  _611
REMARK  249  A    between atoms: _611  and  _612
REMARK  250  A    between atoms: _611  and  _614
REMARK  251  A    between atoms: _614  and  _615
REMARK  252  A    between atoms: _620  and  _622
REMARK  253  A    between atoms: _622  and  _623
REMARK  254  A    between atoms: _622  and  _625
REMARK  255  A    between atoms: _628  and  _630
REMARK  256  A    between atoms: _630  and  _631
REMARK  257  A    between atoms: _630  and  _633
REMARK  258  A    between atoms: _633  and  _634
REMARK  259  A    between atoms: _634  and  _635
REMARK  260  A    between atoms: _635  and  _636
REMARK  261  A    between atoms: _636  and  _637
REMARK  262  A    between atoms: _641  and  _643
REMARK  263  A    between atoms: _643  and  _644
REMARK  264  A    between atoms: _643  and  _646
REMARK  265  A    between atoms: _646  and  _647
REMARK  266  A    between atoms: _653  and  _655
REMARK  267  A    between atoms: _655  and  _656
REMARK  268  A    between atoms: _655  and  _658
REMARK  269  A    between atoms: _658  and  _659
REMARK  270  A    between atoms: _665  and  _666
REMARK  271  A    between atoms: _671  and  _673
REMARK  272  A    between atoms: _673  and  _674
REMARK  273  A    between atoms: _673  and  _676
REMARK  274  A    between atoms: _676  and  _677
REMARK  275  A    between atoms: _677  and  _678
REMARK  276  A    between atoms: _678  and  _679
REMARK  277  A    between atoms: _688  and  _690
REMARK  278  A    between atoms: _690  and  _691
REMARK  279  A    between atoms: _690  and  _693
REMARK  280  A    between atoms: _693  and  _694
REMARK  281  A    between atoms: _697  and  _699
REMARK  282  A    between atoms: _699  and  _700
REMARK  283  A    between atoms: _699  and  _702
REMARK  284  A    between atoms: _702  and  _703
REMARK  285  A    between atoms: _706  and  _708
REMARK  286  A    between atoms: _708  and  _709
REMARK  287  A    between atoms: _708  and  _711
REMARK  288  A    between atoms: _711  and  _712
REMARK  289  A    between atoms: _715  and  _717
REMARK  290  A    between atoms: _717  and  _718
REMARK  291  A    between atoms: _717  and  _720
REMARK  292  A    between atoms: _723  and  _725
REMARK  293  A    between atoms: _725  and  _726
REMARK  294  A    between atoms: _725  and  _728
REMARK  295  A    between atoms: _728  and  _729
REMARK  296  A    between atoms: _729  and  _730
REMARK  297  A    between atoms: _730  and  _731
REMARK  298  A    between atoms: _731  and  _732
REMARK  299  A    between atoms: _736  and  _738
REMARK  300  A    between atoms: _738  and  _739
REMARK  301  A    between atoms: _738  and  _741
REMARK  302  A    between atoms: _741  and  _742
REMARK  303  A    between atoms: _742  and  _743
REMARK  304  A    between atoms: _743  and  _744
REMARK  305  A    between atoms: _753  and  _755
REMARK  306  A    between atoms: _755  and  _756
REMARK  307  A    between atoms: _755  and  _758
REMARK  308  A    between atoms: _758  and  _759
REMARK  309  A    between atoms: _762  and  _764
REMARK  310  A    between atoms: _764  and  _765
REMARK  311  A    between atoms: _764  and  _767
REMARK  312  A    between atoms: _767  and  _768
REMARK  313  A    between atoms: _768  and  _769
REMARK  314  A    between atoms: _772  and  _774
REMARK  315  A    between atoms: _774  and  _775
REMARK  316  A    between atoms: _774  and  _777
REMARK  317  A    between atoms: _777  and  _778
REMARK  318  A    between atoms: _788  and  _790
REMARK  319  A    between atoms: _790  and  _791
REMARK  320  A    between atoms: _790  and  _793
REMARK  321  A    between atoms: _793  and  _794
REMARK  322  A    between atoms: _797  and  _799
REMARK  323  A    between atoms: _799  and  _800
REMARK  324  A    between atoms: _799  and  _802
REMARK  325  A    between atoms: _802  and  _803
REMARK  326  A    between atoms: _806  and  _808
REMARK  327  A    between atoms: _808  and  _809
REMARK  328  A    between atoms: _811  and  _813
REMARK  329  A    between atoms: _813  and  _814
REMARK  330  A    between atoms: _813  and  _816
REMARK  331  A    between atoms: _816  and  _817
REMARK  332  A    between atoms: _820  and  _822
REMARK  333  A    between atoms: _822  and  _823
REMARK  334  A    between atoms: _822  and  _825
REMARK  335  A    between atoms: _825  and  _826
REMARK  336  A    between atoms: _826  and  _827
REMARK  337  A    between atoms: _827  and  _828
REMARK  338  A    between atoms: _828  and  _829
REMARK  339  A    between atoms: _834  and  _835
REMARK  340  A    between atoms: _840  and  _842
REMARK  341  A    between atoms: _842  and  _843
REMARK  342  A    between atoms: _842  and  _845
REMARK  343  A    between atoms: _848  and  _850
REMARK  344  A    between atoms: _850  and  _851
REMARK  345  A    between atoms: _854  and  _856
REMARK  346  A    between atoms: _856  and  _857
REMARK  347  A    between atoms: _856  and  _859
REMARK  348  A    between atoms: _859  and  _860
REMARK  349  A    between atoms: _860  and  _861
REMARK  350  A    between atoms: _864  and  _866
REMARK  351  A    between atoms: _866  and  _867
REMARK  352  A    between atoms: _866  and  _869
REMARK  353  A    between atoms: _872  and  _874
REMARK  354  A    between atoms: _874  and  _875
REMARK  355  A    between atoms: _874  and  _877
REMARK  356  A    between atoms: _877  and  _878
REMARK  357  A    between atoms: _878  and  _879
REMARK  358  A    between atoms: _879  and  _880
REMARK                            x       y       z     vdW  Elec       q    Type
REMARK                         _______ _______ _______ _____ _____    ______ ____
ROOT
ATOM      1  CA  ILE A   6     -26.191  12.261 -34.798  0.00  0.00    +0.149 C 
ENDROOT
BRANCH   1   2
ATOM      2  C   ILE A   6     -27.483  12.227 -33.966  0.00  0.00    +0.241 C 
ATOM      3  O   ILE A   6     -27.607  12.962 -32.986  0.00  0.00    -0.273 OA
ATOM      4  N   VAL A   7     -28.425  11.354 -34.317  0.00  0.00    -0.297 N 
ATOM      5  H   VAL A   7     -28.289  10.749 -35.152  0.00  0.00    +0.150 HD
BRANCH   4   6
ATOM      6  CA  VAL A   7     -29.654  11.247 -33.526  0.00  0.00    +0.149 C 
BRANCH   6   7
ATOM      7  C   VAL A   7     -29.394  10.641 -32.143  0.00  0.00    +0.241 C 
ATOM      8  O   VAL A   7     -30.195  10.818 -31.225  0.00  0.00    -0.273 OA
ATOM      9  N   GLY A   8     -28.272   9.942 -31.992  0.00  0.00    -0.295 N 
ATOM     10  H   GLY A   8     -27.650   9.796 -32.813  0.00  0.00    +0.150 HD
BRANCH   9  11
ATOM     11  CA  GLY A   8     -27.895   9.377 -30.706  0.00  0.00    +0.176 C 
BRANCH  11  12
ATOM     12  C   GLY A   8     -26.808  10.161 -29.988  0.00  0.00    +0.243 C 
ATOM     13  O   GLY A   8     -26.270   9.712 -28.977  0.00  0.00    -0.273 OA
ATOM     14  N   ARG A   9     -26.483  11.342 -30.505  0.00  0.00    -0.297 N 
ATOM     15  H   ARG A   9     -26.993  11.691 -31.341  0.00  0.00    +0.150 HD
BRANCH  14  16
ATOM     16  CA  ARG A   9     -25.423  12.157 -29.919  0.00  0.00    +0.149 C 
BRANCH  16  17
ATOM     17  C   ARG A   9     -25.892  12.917 -28.676  0.00  0.00    +0.241 C 
ATOM     18  N   ARG A  10     -25.080  12.868 -27.624  0.00  0.00    -0.297 N 
ATOM     19  H   ARG A  10     -24.250  12.243 -27.665  0.00  0.00    +0.150 HD
ATOM     20  O   ARG A   9     -26.965  13.517 -28.670  0.00  0.00    -0.273 OA
BRANCH  18  21
ATOM     21  CA  ARG A  10     -25.302  13.653 -26.414  0.00  0.00    +0.149 C 
BRANCH  21  22
ATOM     22  C   ARG A  10     -24.031  14.438 -26.104  0.00  0.00    +0.241 C 
ATOM     23  N   VAL A  11     -24.176  15.677 -25.645  0.00  0.00    -0.298 N 
ATOM     24  H   VAL A  11     -25.124  16.043 -25.426  0.00  0.00    +0.150 HD
ATOM     25  O   ARG A  10     -22.924  13.929 -26.287  0.00  0.00    -0.273 OA
BRANCH  23  26
ATOM     26  CA  VAL A  11     -23.003  16.523 -25.448  0.00  0.00    +0.137 C 
BRANCH  26  27
ATOM     27  CB  VAL A  11     -22.964  17.686 -26.474  0.00  0.00    +0.026 C 
ATOM     28  CG2 VAL A  11     -24.136  18.628 -26.271  0.00  0.00    +0.002 C 
ATOM     29  CG1 VAL A  11     -22.951  17.145 -27.898  0.00  0.00    +0.002 C 
ENDBRANCH  26  27
BRANCH  26  30
ATOM     30  C   VAL A  11     -22.908  17.124 -24.047  0.00  0.00    +0.227 C 
ATOM     31  O   VAL A  11     -23.913  17.322 -23.363  0.00  0.00    -0.286 OA
ENDBRANCH  26  30
ENDBRANCH  23  26
ENDBRANCH  21  22
BRANCH  21  32
ATOM     32  CB  ARG A  10     -25.681  12.756 -25.233  0.00  0.00    +0.033 C 
BRANCH  32  33
ATOM     33  CG  ARG A  10     -26.829  11.791 -25.508  0.00  0.00    +0.045 C 
BRANCH  33  34
ATOM     34  CD  ARG A  10     -28.153  12.517 -25.699  0.00  0.00    +0.174 C 
BRANCH  34  35
ATOM     35  NE  ARG A  10     -29.256  11.584 -25.926  0.00  0.00    -0.265 N 
ATOM     36  HE  ARG A  10     -29.705  11.153 -25.093  0.00  0.00    +0.259 HD
ATOM     37  CZ  ARG A  10     -29.724  11.249 -27.126  0.00  0.00    +0.342 C 
ATOM     38  NH2 ARG A  10     -30.729  10.389 -27.232  0.00  0.00    -0.292 N 
ATOM     39 HH21 ARG A  10     -31.152   9.976 -26.377  0.00  0.00    +0.255 HD
ATOM     40 HH22 ARG A  10     -31.094  10.128 -28.170  0.00  0.00    +0.255 HD
ATOM     41  NH1 ARG A  10     -29.194  11.778 -28.221  0.00  0.00    -0.292 N 
ATOM     42 HH11 ARG A  10     -28.410  12.457 -28.144  0.00  0.00    +0.255 HD
ATOM     43 HH12 ARG A  10     -29.562  11.514 -29.157  0.00  0.00    +0.255 HD
ENDBRANCH  34  35
ENDBRANCH  33  34
ENDBRANCH  32  33
ENDBRANCH  21  32
ENDBRANCH  18  21
ENDBRANCH  16  17
BRANCH  16  44
ATOM     44  CB  ARG A   9     -24.872  13.140 -30.959  0.00  0.00    +0.033 C 
BRANCH  44  45
ATOM     45  CG  ARG A   9     -23.911  14.179 -30.394  0.00  0.00    +0.045 C 
BRANCH  45  46
ATOM     46  CD  ARG A   9     -23.059  14.812 -31.488  0.00  0.00    +0.174 C 
BRANCH  46  47
ATOM     47  NE  ARG A   9     -23.849  15.602 -32.431  0.00  0.00    -0.265 N 
ATOM     48  HE  ARG A   9     -24.860  15.736 -32.225  0.00  0.00    +0.259 HD
ATOM     49  CZ  ARG A   9     -23.359  16.161 -33.536  0.00  0.00    +0.342 C 
ATOM     50  NH2 ARG A   9     -22.075  16.019 -33.844  0.00  0.00    -0.292 N 
ATOM     51 HH21 ARG A   9     -21.449  15.470 -33.221  0.00  0.00    +0.255 HD
ATOM     52 HH22 ARG A   9     -21.696  16.457 -34.708  0.00  0.00    +0.255 HD
ATOM     53  NH1 ARG A   9     -24.152  16.861 -34.337  0.00  0.00    -0.292 N 
ATOM     54 HH11 ARG A   9     -25.159  16.974 -34.103  0.00  0.00    +0.255 HD
ATOM     55 HH12 ARG A   9     -23.767  17.296 -35.199  0.00  0.00    +0.255 HD
ENDBRANCH  46  47
ENDBRANCH  45  46
ENDBRANCH  44  45
ENDBRANCH  16  44
ENDBRANCH  14  16
ENDBRANCH  11  12
ENDBRANCH   9  11
ENDBRANCH   6   7
BRANCH   6  56
ATOM     56  CB  VAL A   7     -30.740  10.414 -34.245  0.00  0.00    +0.027 C 
ATOM     57  CG2 VAL A   7     -30.271   8.986 -34.460  0.00  0.00    +0.002 C 
ATOM     58  CG1 VAL A   7     -31.129  11.067 -35.567  0.00  0.00    +0.002 C 
ENDBRANCH   6  56
ENDBRANCH   4   6
ENDBRANCH   1   2
BRANCH   1  61
ATOM     59  C   ARG A   5     -25.317  10.028 -34.647  0.00  0.00    +0.241 C 
ATOM     60  O   ARG A   5     -25.182  10.137 -33.431  0.00  0.00    -0.273 OA
ATOM     61  N   ILE A   6     -25.888  10.968 -35.384  0.00  0.00    -0.297 N 
ATOM     62  H   ILE A   6     -26.119  10.780 -36.381  0.00  0.00    +0.150 HD
BRANCH  59  63
ATOM     63  CA  ARG A   5     -24.837   8.786 -35.385  0.00  0.00    +0.149 C 
BRANCH  63  66
ATOM     64  C   ASP A   4     -26.958   7.702 -35.823  0.00  0.00    +0.241 C 
ATOM     65  O   ASP A   4     -27.131   7.463 -34.627  0.00  0.00    -0.273 OA
ATOM     66  N   ARG A   5     -25.862   8.288 -36.289  0.00  0.00    -0.297 N 
ATOM     67  H   ARG A   5     -25.734   8.393 -37.316  0.00  0.00    +0.150 HD
BRANCH  64  68
ATOM     68  CA  ASP A   4     -28.017   7.326 -36.853  0.00  0.00    +0.160 C 
BRANCH  68  71
ATOM     69  C   VAL A   3     -28.176   9.432 -38.062  0.00  0.00    +0.241 C 
ATOM     70  O   VAL A   3     -28.465  10.037 -37.032  0.00  0.00    -0.273 OA
ATOM     71  N   ASP A   4     -27.912   8.128 -38.073  0.00  0.00    -0.297 N 
ATOM     72  H   ASP A   4     -27.626   7.671 -38.963  0.00  0.00    +0.150 HD
BRANCH  69  73
ATOM     73  CA  VAL A   3     -28.091  10.181 -39.400  0.00  0.00    +0.149 C 
BRANCH  73  76
ATOM     74  C   ILE A   2     -25.670  10.257 -39.590  0.00  0.00    +0.241 C 
ATOM     75  O   ILE A   2     -25.571  10.775 -38.477  0.00  0.00    -0.273 OA
ATOM     76  N   VAL A   3     -26.843   9.916 -40.115  0.00  0.00    -0.297 N 
ATOM     77  H   VAL A   3     -26.873   9.455 -41.047  0.00  0.00    +0.150 HD
BRANCH  74  78
ATOM     78  CA  ILE A   2     -24.412   9.959 -40.414  0.00  0.00    +0.148 C 
BRANCH  78  81
ATOM     79  C   LEU A   1     -24.325   7.526 -40.353  0.00  0.00    +0.238 C 
ATOM     80  O   LEU A   1     -24.483   7.479 -39.133  0.00  0.00    -0.274 OA
ATOM     81  N   ILE A   2     -24.414   8.650 -41.054  0.00  0.00    -0.297 N 
ATOM     82  H   ILE A   2     -24.487   8.595 -42.090  0.00  0.00    +0.150 HD
BRANCH  79  83
ATOM     83  CA  LEU A   1     -24.021   6.267 -41.151  0.00  0.00    +0.145 C 
BRANCH  83  84
ATOM     84  N   LEU A   1     -24.264   6.460 -42.581  0.00  0.00    -0.238 NA
ATOM     85  H   LEU A   1     -23.529   6.905 -43.168  0.00  0.00    +0.142 HD
ENDBRANCH  83  84
BRANCH  83  86
ATOM     86  CB  LEU A   1     -22.568   5.848 -40.898  0.00  0.00    +0.026 C 
BRANCH  86  87
ATOM     87  CG  LEU A   1     -22.223   4.357 -40.926  0.00  0.00    +0.002 C 
ATOM     88  CD2 LEU A   1     -20.745   4.153 -40.630  0.00  0.00    +0.000 C 
ATOM     89  CD1 LEU A   1     -22.599   3.731 -42.257  0.00  0.00    +0.000 C 
ENDBRANCH  86  87
ENDBRANCH  83  86
ENDBRANCH  79  83
ENDBRANCH  78  81
BRANCH  78  90
ATOM     90  CB  ILE A   2     -24.197  11.059 -41.471  0.00  0.00    +0.027 C 
ATOM     91  CG2 ILE A   2     -24.445  12.434 -40.887  0.00  0.00    +0.002 C 
BRANCH  90  92
ATOM     92  CG1 ILE A   2     -22.768  10.961 -42.017  0.00  0.00    +0.002 C 
ATOM     93  CD1 ILE A   2     -22.437  11.975 -43.084  0.00  0.00    +0.000 C 
ENDBRANCH  90  92
ENDBRANCH  78  90
ENDBRANCH  74  78
ENDBRANCH  73  76
BRANCH  73  94
ATOM     94  CB  VAL A   3     -29.321   9.824 -40.262  0.00  0.00    +0.027 C 
ATOM     95  CG2 VAL A   3     -30.557   9.634 -39.391  0.00  0.00    +0.002 C 
ATOM     96  CG1 VAL A   3     -29.568  10.906 -41.302  0.00  0.00    +0.002 C 
ENDBRANCH  73  94
ENDBRANCH  69  73
ENDBRANCH  68  71
BRANCH  68  97
ATOM     97  CB  ASP A   4     -27.917   5.832 -37.173  0.00  0.00    +0.143 C 
BRANCH  97  98
ATOM     98  CG  ASP A   4     -29.200   5.278 -37.767  0.00  0.00    +0.367 C 
ATOM     99  OD2 ASP A   4     -30.234   5.979 -37.717  0.00  0.00    -0.246 OA
ATOM    100  OD1 ASP A   4     -29.176   4.137 -38.276  0.00  0.00    -0.246 OA
ENDBRANCH  97  98
ENDBRANCH  68  97
ENDBRANCH  64  68
ENDBRANCH  63  66
BRANCH  63 101
ATOM    101  CB  ARG A   5     -23.546   9.101 -36.144  0.00  0.00    +0.033 C 
BRANCH 101 102
ATOM    102  CG  ARG A   5     -22.659   7.893 -36.375  0.00  0.00    +0.045 C 
BRANCH 102 103
ATOM    103  CD  ARG A   5     -21.275   8.298 -36.845  0.00  0.00    +0.174 C 
BRANCH 103 104
ATOM    104  NE  ARG A   5     -20.394   7.140 -36.949  0.00  0.00    -0.265 N 
ATOM    105  HE  ARG A   5     -20.835   6.199 -36.990  0.00  0.00    +0.259 HD
ATOM    106  CZ  ARG A   5     -19.068   7.204 -36.995  0.00  0.00    +0.342 C 
ATOM    107  NH2 ARG A   5     -18.453   8.378 -36.943  0.00  0.00    -0.292 N 
ATOM    108 HH21 ARG A   5     -19.009   9.253 -36.866  0.00  0.00    +0.255 HD
ATOM    109 HH22 ARG A   5     -17.415   8.423 -36.979  0.00  0.00    +0.255 HD
ATOM    110  NH1 ARG A   5     -18.354   6.091 -37.088  0.00  0.00    -0.292 N 
ATOM    111 HH11 ARG A   5     -17.316   6.141 -37.124  0.00  0.00    +0.255 HD
ATOM    112 HH12 ARG A   5     -18.832   5.168 -37.125  0.00  0.00    +0.255 HD
ENDBRANCH 103 104
ENDBRANCH 102 103
ENDBRANCH 101 102
ENDBRANCH  63 101
ENDBRANCH  59  63
ENDBRANCH   1  61
BRANCH   1 113
ATOM    113  CB  ILE A   6     -26.252  13.338 -35.896  0.00  0.00    +0.027 C 
ATOM    114  CG2 ILE A   6     -26.689  14.658 -35.337  0.00  0.00    +0.002 C 
BRANCH 113 115
ATOM    115  CG1 ILE A   6     -24.860  13.511 -36.507  0.00  0.00    +0.002 C 
ATOM    116  CD1 ILE A   6     -24.803  14.496 -37.647  0.00  0.00    +0.000 C 
ENDBRANCH 113 115
ENDBRANCH   1 113
TORSDOF 45
REMARK  Name = ../refined-set-2016/4x8o/4x8o_pocket.pdb
REMARK  358 active torsions:
REMARK  status: ('A' for Active; 'I' for Inactive)
REMARK    1  A    between atoms: _1  and  _3
REMARK    2  A    between atoms: _3  and  _4
REMARK    3  A    between atoms: _3  and  _6
REMARK    4  A    between atoms: _6  and  _7
REMARK    5  A    between atoms: _10  and  _12
REMARK    6  A    between atoms: _12  and  _13
REMARK    7  A    between atoms: _12  and  _15
REMARK    8  A    between atoms: _15  and  _16
REMARK    9  A    between atoms: _19  and  _21
REMARK   10  A    between atoms: _21  and  _22
REMARK   11  A    between atoms: _24  and  _26
REMARK   12  A    between atoms: _26  and  _27
REMARK   13  A    between atoms: _31  and  _32
REMARK   14  A    between atoms: _37  and  _39
REMARK   15  A    between atoms: _39  and  _40
REMARK   16  A    between atoms: _42  and  _44
REMARK   17  A    between atoms: _44  and  _45
REMARK   18  A    between atoms: _48  and  _50
REMARK   19  A    between atoms: _50  and  _51
REMARK   20  A    between atoms: _53  and  _55
REMARK   21  A    between atoms: _55  and  _56
REMARK   22  A    between atoms: _55  and  _58
REMARK   23  A    between atoms: _58  and  _59
REMARK   24  A    between atoms: _59  and  _60
REMARK   25  A    between atoms: _60  and  _61
REMARK   26  A    between atoms: _61  and  _62
REMARK   27  A    between atoms: _66  and  _68
REMARK   28  A    between atoms: _68  and  _69
REMARK   29  A    between atoms: _71  and  _73
REMARK   30  A    between atoms: _73  and  _74
REMARK   31  A    between atoms: _73  and  _76
REMARK   32  A    between atoms: _76  and  _77
REMARK   33  A    between atoms: _80  and  _82
REMARK   34  A    between atoms: _82  and  _83
REMARK   35  A    between atoms: _82  and  _85
REMARK   36  A    between atoms: _85  and  _86
REMARK   37  A    between atoms: _86  and  _87
REMARK   38  A    between atoms: _92  and  _94
REMARK   39  A    between atoms: _94  and  _95
REMARK   40  A    between atoms: _98  and  _100
REMARK   41  A    between atoms: _100  and  _101
REMARK   42  A    between atoms: _100  and  _103
REMARK   43  A    between atoms: _103  and  _104
REMARK   44  A    between atoms: _104  and  _105
REMARK   45  A    between atoms: _110  and  _112
REMARK   46  A    between atoms: _112  and  _113
REMARK   47  A    between atoms: _112  and  _115
REMARK   48  A    between atoms: _115  and  _116
REMARK   49  A    between atoms: _122  and  _124
REMARK   50  A    between atoms: _124  and  _125
REMARK   51  A    between atoms: _124  and  _127
REMARK   52  A    between atoms: _127  and  _128
REMARK   53  A    between atoms: _128  and  _129
REMARK   54  A    between atoms: _134  and  _136
REMARK   55  A    between atoms: _136  and  _137
REMARK   56  A    between atoms: _136  and  _139
REMARK   57  A    between atoms: _139  and  _140
REMARK   58  A    between atoms: _142  and  _144
REMARK   59  A    between atoms: _144  and  _145
REMARK   60  A    between atoms: _144  and  _147
REMARK   61  A    between atoms: _147  and  _148
REMARK   62  A    between atoms: _151  and  _153
REMARK   63  A    between atoms: _153  and  _154
REMARK   64  A    between atoms: _156  and  _158
REMARK   65  A    between atoms: _158  and  _159
REMARK   66  A    between atoms: _158  and  _161
REMARK   67  A    between atoms: _161  and  _162
REMARK   68  A    between atoms: _165  and  _167
REMARK   69  A    between atoms: _167  and  _168
REMARK   70  A    between atoms: _167  and  _170
REMARK   71  A    between atoms: _170  and  _171
REMARK   72  A    between atoms: _171  and  _172
REMARK   73  A    between atoms: _174  and  _176
REMARK   74  A    between atoms: _176  and  _177
REMARK   75  A    between atoms: _176  and  _179
REMARK   76  A    between atoms: _179  and  _180
REMARK   77  A    between atoms: _183  and  _185
REMARK   78  A    between atoms: _185  and  _186
REMARK   79  A    between atoms: _185  and  _188
REMARK   80  A    between atoms: _188  and  _189
REMARK   81  A    between atoms: _189  and  _190
REMARK   82  A    between atoms: _190  and  _191
REMARK   83  A    between atoms: _200  and  _202
REMARK   84  A    between atoms: _202  and  _203
REMARK   85  A    between atoms: _206  and  _208
REMARK   86  A    between atoms: _208  and  _209
REMARK   87  A    between atoms: _208  and  _211
REMARK   88  A    between atoms: _211  and  _212
REMARK   89  A    between atoms: _212  and  _213
REMARK   90  A    between atoms: _213  and  _214
REMARK   91  A    between atoms: _214  and  _215
REMARK   92  A    between atoms: _219  and  _221
REMARK   93  A    between atoms: _221  and  _222
REMARK   94  A    between atoms: _221  and  _224
REMARK   95  A    between atoms: _224  and  _225
REMARK   96  A    between atoms: _228  and  _230
REMARK   97  A    between atoms: _230  and  _231
REMARK   98  A    between atoms: _230  and  _233
REMARK   99  A    between atoms: _233  and  _234
REMARK  100  A    between atoms: _237  and  _239
REMARK  101  A    between atoms: _239  and  _240
REMARK  102  A    between atoms: _239  and  _242
REMARK  103  A    between atoms: _242  and  _243
REMARK  104  A    between atoms: _243  and  _244
REMARK  105  A    between atoms: _246  and  _248
REMARK  106  A    between atoms: _248  and  _249
REMARK  107  A    between atoms: _248  and  _251
REMARK  108  A    between atoms: _251  and  _252
REMARK  109  A    between atoms: _255  and  _257
REMARK  110  A    between atoms: _257  and  _258
REMARK  111  A    between atoms: _261  and  _263
REMARK  112  A    between atoms: _263  and  _264
REMARK  113  A    between atoms: _266  and  _268
REMARK  114  A    between atoms: _268  and  _269
REMARK  115  A    between atoms: _268  and  _271
REMARK  116  A    between atoms: _271  and  _272
REMARK  117  A    between atoms: _272  and  _273
REMARK  118  A    between atoms: _273  and  _274
REMARK  119  A    between atoms: _274  and  _275
REMARK  120  A    between atoms: _279  and  _281
REMARK  121  A    between atoms: _281  and  _282
REMARK  122  A    between atoms: _281  and  _284
REMARK  123  A    between atoms: _284  and  _285
REMARK  124  A    between atoms: _288  and  _290
REMARK  125  A    between atoms: _290  and  _291
REMARK  126  A    between atoms: _290  and  _293
REMARK  127  A    between atoms: _296  and  _298
REMARK  128  A    between atoms: _298  and  _299
REMARK  129  A    between atoms: _298  and  _301
REMARK  130  A    between atoms: _301  and  _302
REMARK  131  A    between atoms: _305  and  _307
REMARK  132  A    between atoms: _307  and  _308
REMARK  133  A    between atoms: _307  and  _310
REMARK  134  A    between atoms: _310  and  _311
REMARK  135  A    between atoms: _314  and  _316
REMARK  136  A    between atoms: _316  and  _317
REMARK  137  A    between atoms: _316  and  _319
REMARK  138  A    between atoms: _319  and  _320
REMARK  139  A    between atoms: _320  and  _321
REMARK  140  A    between atoms: _324  and  _326
REMARK  141  A    between atoms: _326  and  _327
REMARK  142  A    between atoms: _326  and  _329
REMARK  143  A    between atoms: _329  and  _330
REMARK  144  A    between atoms: _333  and  _335
REMARK  145  A    between atoms: _335  and  _336
REMARK  146  A    between atoms: _335  and  _338
REMARK  147  A    between atoms: _341  and  _343
REMARK  148  A    between atoms: _343  and  _344
REMARK  149  A    between atoms: _343  and  _346
REMARK  150  A    between atoms: _346  and  _347
REMARK  151  A    between atoms: _350  and  _352
REMARK  152  A    between atoms: _352  and  _353
REMARK  153  A    between atoms: _352  and  _355
REMARK  154  A    between atoms: _358  and  _360
REMARK  155  A    between atoms: _360  and  _361
REMARK  156  A    between atoms: _360  and  _363
REMARK  157  A    between atoms: _363  and  _364
REMARK  158  A    between atoms: _367  and  _369
REMARK  159  A    between atoms: _369  and  _370
REMARK  160  A    between atoms: _372  and  _374
REMARK  161  A    between atoms: _374  and  _375
REMARK  162  A    between atoms: _374  and  _377
REMARK  163  A    between atoms: _377  and  _378
REMARK  164  A    between atoms: _385  and  _386
REMARK  165  A    between atoms: _391  and  _393
REMARK  166  A    between atoms: _393  and  _394
REMARK  167  A    between atoms: _393  and  _396
REMARK  168  A    between atoms: _396  and  _397
REMARK  169  A    between atoms: _397  and  _398
REMARK  170  A    between atoms: _398  and  _399
REMARK  171  A    between atoms: _408  and  _410
REMARK  172  A    between atoms: _410  and  _411
REMARK  173  A    between atoms: _410  and  _413
REMARK  174  A    between atoms: _413  and  _414
REMARK  175  A    between atoms: _417  and  _419
REMARK  176  A    between atoms: _419  and  _420
REMARK  177  A    between atoms: _419  and  _422
REMARK  178  A    between atoms: _422  and  _423
REMARK  179  A    between atoms: _423  and  _424
REMARK  180  A    between atoms: _429  and  _431
REMARK  181  A    between atoms: _431  and  _432
REMARK  182  A    between atoms: _431  and  _434
REMARK  183  A    between atoms: _434  and  _435
REMARK  184  A    between atoms: _441  and  _443
REMARK  185  A    between atoms: _443  and  _444
REMARK  186  A    between atoms: _443  and  _446
REMARK  187  A    between atoms: _449  and  _451
REMARK  188  A    between atoms: _451  and  _452
REMARK  189  A    between atoms: _451  and  _454
REMARK  190  A    between atoms: _454  and  _455
REMARK  191  A    between atoms: _458  and  _460
REMARK  192  A    between atoms: _460  and  _461
REMARK  193  A    between atoms: _460  and  _463
REMARK  194  A    between atoms: _463  and  _464
REMARK  195  A    between atoms: _467  and  _469
REMARK  196  A    between atoms: _469  and  _470
REMARK  197  A    between atoms: _469  and  _472
REMARK  198  A    between atoms: _475  and  _477
REMARK  199  A    between atoms: _477  and  _478
REMARK  200  A    between atoms: _477  and  _480
REMARK  201  A    between atoms: _480  and  _481
REMARK  202  A    between atoms: _484  and  _486
REMARK  203  A    between atoms: _486  and  _487
REMARK  204  A    between atoms: _486  and  _489
REMARK  205  A    between atoms: _489  and  _490
REMARK  206  A    between atoms: _490  and  _491
REMARK  207  A    between atoms: _491  and  _492
REMARK  208  A    between atoms: _501  and  _503
REMARK  209  A    between atoms: _503  and  _504
REMARK  210  A    between atoms: _503  and  _506
REMARK  211  A    between atoms: _506  and  _507
REMARK  212  A    between atoms: _510  and  _512
REMARK  213  A    between atoms: _512  and  _513
REMARK  214  A    between atoms: _512  and  _515
REMARK  215  A    between atoms: _518  and  _520
REMARK  216  A    between atoms: _520  and  _521
REMARK  217  A    between atoms: _523  and  _525
REMARK  218  A    between atoms: _525  and  _526
REMARK  219  A    between atoms: _525  and  _528
REMARK  220  A    between atoms: _528  and  _529
REMARK  221  A    between atoms: _529  and  _530
REMARK  222  A    between atoms: _530  and  _531
REMARK  223  A    between atoms: _540  and  _542
REMARK  224  A    between atoms: _542  and  _543
REMARK  225  A    between atoms: _542  and  _545
REMARK  226  A    between atoms: _545  and  _546
REMARK  227  A    between atoms: _546  and  _547
REMARK  228  A    between atoms: _547  and  _548
REMARK  229  A    between atoms: _557  and  _559
REMARK  230  A    between atoms: _559  and  _560
REMARK  231  A    between atoms: _559  and  _562
REMARK  232  A    between atoms: _565  and  _567
REMARK  233  A    between atoms: _567  and  _568
REMARK  234  A    between atoms: _570  and  _572
REMARK  235  A    between atoms: _572  and  _573
REMARK  236  A    between atoms: _572  and  _575
REMARK  237  A    between atoms: _575  and  _576
REMARK  238  A    between atoms: _576  and  _577
REMARK  239  A    between atoms: _577  and  _578
REMARK  240  A    between atoms: _587  and  _589
REMARK  241  A    between atoms: _589  and  _590
REMARK  242  A    between atoms: _589  and  _592
REMARK  243  A    between atoms: _595  and  _597
REMARK  244  A    between atoms: _597  and  _598
REMARK  245  A    between atoms: _597  and  _600
REMARK  246  A    between atoms: _600  and  _601
REMARK  247  A    between atoms: _606  and  _607
REMARK  248  A    between atoms: _609  and  _611
REMARK  249  A    between atoms: _611  and  _612
REMARK  250  A    between atoms: _611  and  _614
REMARK  251  A    between atoms: _614  and  _615
REMARK  252  A    between atoms: _620  and  _622
REMARK  253  A    between atoms: _622  and  _623
REMARK  254  A    between atoms: _622  and  _625
REMARK  255  A    between atoms: _628  and  _630
REMARK  256  A    between atoms: _630  and  _631
REMARK  257  A    between atoms: _630  and  _633
REMARK  258  A    between atoms: _633  and  _634
REMARK  259  A    between atoms: _634  and  _635
REMARK  260  A    between atoms: _635  and  _636
REMARK  261  A    between atoms: _636  and  _637
REMARK  262  A    between atoms: _641  and  _643
REMARK  263  A    between atoms: _643  and  _644
REMARK  264  A    between atoms: _643  and  _646
REMARK  265  A    between atoms: _646  and  _647
REMARK  266  A    between atoms: _653  and  _655
REMARK  267  A    between atoms: _655  and  _656
REMARK  268  A    between atoms: _655  and  _658
REMARK  269  A    between atoms: _658  and  _659
REMARK  270  A    between atoms: _665  and  _666
REMARK  271  A    between atoms: _671  and  _673
REMARK  272  A    between atoms: _673  and  _674
REMARK  273  A    between atoms: _673  and  _676
REMARK  274  A    between atoms: _676  and  _677
REMARK  275  A    between atoms: _677  and  _678
REMARK  276  A    between atoms: _678  and  _679
REMARK  277  A    between atoms: _688  and  _690
REMARK  278  A    between atoms: _690  and  _691
REMARK  279  A    between atoms: _690  and  _693
REMARK  280  A    between atoms: _693  and  _694
REMARK  281  A    between atoms: _697  and  _699
REMARK  282  A    between atoms: _699  and  _700
REMARK  283  A    between atoms: _699  and  _702
REMARK  284  A    between atoms: _702  and  _703
REMARK  285  A    between atoms: _706  and  _708
REMARK  286  A    between atoms: _708  and  _709
REMARK  287  A    between atoms: _708  and  _711
REMARK  288  A    between atoms: _711  and  _712
REMARK  289  A    between atoms: _715  and  _717
REMARK  290  A    between atoms: _717  and  _718
REMARK  291  A    between atoms: _717  and  _720
REMARK  292  A    between atoms: _723  and  _725
REMARK  293  A    between atoms: _725  and  _726
REMARK  294  A    between atoms: _725  and  _728
REMARK  295  A    between atoms: _728  and  _729
REMARK  296  A    between atoms: _729  and  _730
REMARK  297  A    between atoms: _730  and  _731
REMARK  298  A    between atoms: _731  and  _732
REMARK  299  A    between atoms: _736  and  _738
REMARK  300  A    between atoms: _738  and  _739
REMARK  301  A    between atoms: _738  and  _741
REMARK  302  A    between atoms: _741  and  _742
REMARK  303  A    between atoms: _742  and  _743
REMARK  304  A    between atoms: _743  and  _744
REMARK  305  A    between atoms: _753  and  _755
REMARK  306  A    between atoms: _755  and  _756
REMARK  307  A    between atoms: _755  and  _758
REMARK  308  A    between atoms: _758  and  _759
REMARK  309  A    between atoms: _762  and  _764
REMARK  310  A    between atoms: _764  and  _765
REMARK  311  A    between atoms: _764  and  _767
REMARK  312  A    between atoms: _767  and  _768
REMARK  313  A    between atoms: _768  and  _769
REMARK  314  A    between atoms: _772  and  _774
REMARK  315  A    between atoms: _774  and  _775
REMARK  316  A    between atoms: _774  and  _777
REMARK  317  A    between atoms: _777  and  _778
REMARK  318  A    between atoms: _788  and  _790
REMARK  319  A    between atoms: _790  and  _791
REMARK  320  A    between atoms: _790  and  _793
REMARK  321  A    between atoms: _793  and  _794
REMARK  322  A    between atoms: _797  and  _799
REMARK  323  A    between atoms: _799  and  _800
REMARK  324  A    between atoms: _799  and  _802
REMARK  325  A    between atoms: _802  and  _803
REMARK  326  A    between atoms: _806  and  _808
REMARK  327  A    between atoms: _808  and  _809
REMARK  328  A    between atoms: _811  and  _813
REMARK  329  A    between atoms: _813  and  _814
REMARK  330  A    between atoms: _813  and  _816
REMARK  331  A    between atoms: _816  and  _817
REMARK  332  A    between atoms: _820  and  _822
REMARK  333  A    between atoms: _822  and  _823
REMARK  334  A    between atoms: _822  and  _825
REMARK  335  A    between atoms: _825  and  _826
REMARK  336  A    between atoms: _826  and  _827
REMARK  337  A    between atoms: _827  and  _828
REMARK  338  A    between atoms: _828  and  _829
REMARK  339  A    between atoms: _834  and  _835
REMARK  340  A    between atoms: _840  and  _842
REMARK  341  A    between atoms: _842  and  _843
REMARK  342  A    between atoms: _842  and  _845
REMARK  343  A    between atoms: _848  and  _850
REMARK  344  A    between atoms: _850  and  _851
REMARK  345  A    between atoms: _854  and  _856
REMARK  346  A    between atoms: _856  and  _857
REMARK  347  A    between atoms: _856  and  _859
REMARK  348  A    between atoms: _859  and  _860
REMARK  349  A    between atoms: _860  and  _861
REMARK  350  A    between atoms: _864  and  _866
REMARK  351  A    between atoms: _866  and  _867
REMARK  352  A    between atoms: _866  and  _869
REMARK  353  A    between atoms: _872  and  _874
REMARK  354  A    between atoms: _874  and  _875
REMARK  355  A    between atoms: _874  and  _877
REMARK  356  A    between atoms: _877  and  _878
REMARK  357  A    between atoms: _878  and  _879
REMARK  358  A    between atoms: _879  and  _880
REMARK                            x       y       z     vdW  Elec       q    Type
REMARK                         _______ _______ _______ _____ _____    ______ ____
ROOT
ATOM      1  CA  HIS A   5     -23.323   8.387 -28.291  0.00  0.00    +0.155 C 
ENDROOT
BRANCH   1   2
ATOM      2  C   HIS A   5     -24.009   7.286 -27.492  0.00  0.00    +0.241 C 
ATOM      3  O   HIS A   5     -23.352   6.374 -26.995  0.00  0.00    -0.273 OA
ATOM      4  N   VAL A   6     -25.334   7.358 -27.390  0.00  0.00    -0.297 N 
ATOM      5  H   VAL A   6     -25.849   8.066 -27.952  0.00  0.00    +0.150 HD
BRANCH   4   6
ATOM      6  CA  VAL A   6     -26.084   6.466 -26.506  0.00  0.00    +0.149 C 
BRANCH   6   7
ATOM      7  C   VAL A   6     -25.898   4.981 -26.831  0.00  0.00    +0.241 C 
ATOM      8  O   VAL A   6     -26.137   4.124 -25.982  0.00  0.00    -0.273 OA
ATOM      9  N   LYS A   7     -25.457   4.679 -28.049  0.00  0.00    -0.297 N 
ATOM     10  H   LYS A   7     -25.266   5.445 -28.726  0.00  0.00    +0.150 HD
BRANCH   9  11
ATOM     11  CA  LYS A   7     -25.235   3.294 -28.456  0.00  0.00    +0.149 C 
BRANCH  11  12
ATOM     12  C   LYS A   7     -23.772   3.001 -28.787  0.00  0.00    +0.241 C 
ATOM     13  O   LYS A   7     -23.228   1.982 -28.363  0.00  0.00    -0.273 OA
ATOM     14  N   PHE A   8     -23.138   3.897 -29.540  0.00  0.00    -0.297 N 
ATOM     15  H   PHE A   8     -23.593   4.813 -29.729  0.00  0.00    +0.150 HD
BRANCH  14  16
ATOM     16  CA  PHE A   8     -21.818   3.626 -30.109  0.00  0.00    +0.153 C 
BRANCH  16  17
ATOM     17  C   PHE A   8     -20.670   4.045 -29.199  0.00  0.00    +0.241 C 
ATOM     18  N   ASN A   9     -20.925   5.008 -28.322  0.00  0.00    -0.297 N 
ATOM     19  H   ASN A   9     -21.882   5.412 -28.271  0.00  0.00    +0.150 HD
ATOM     20  O   PHE A   8     -19.565   3.517 -29.305  0.00  0.00    -0.273 OA
BRANCH  18  21
ATOM     21  CA  ASN A   9     -19.888   5.508 -27.430  0.00  0.00    +0.158 C 
BRANCH  21  22
ATOM     22  C   ASN A   9     -20.492   6.169 -26.196  0.00  0.00    +0.244 C 
ATOM     23  N   PRO A  10     -21.197   5.378 -25.370  0.00  0.00    -0.273 N 
ATOM     24  CA  PRO A  10     -21.925   5.943 -24.230  0.00  0.00    +0.140 C 
ATOM     25  CB  PRO A  10     -22.809   4.776 -23.774  0.00  0.00    +0.030 C 
ATOM     26  CG  PRO A  10     -22.053   3.564 -24.171  0.00  0.00    +0.024 C 
ATOM     27  CD  PRO A  10     -21.343   3.913 -25.448  0.00  0.00    +0.094 C 
ATOM     28  O   ASN A   9     -20.334   7.374 -25.987  0.00  0.00    -0.273 OA
BRANCH  24  29
ATOM     29  C   PRO A  10     -21.008   6.402 -23.104  0.00  0.00    +0.227 C 
ATOM     30  O   PRO A  10     -19.862   5.958 -23.021  0.00  0.00    -0.286 OA
ENDBRANCH  24  29
ENDBRANCH  21  22
BRANCH  21  31
ATOM     31  CB  ASN A   9     -18.983   6.492 -28.177  0.00  0.00    +0.114 C 
BRANCH  31  32
ATOM     32  CG  ASN A   9     -17.713   6.814 -27.415  0.00  0.00    +0.222 C 
ATOM     33  OD1 ASN A   9     -17.327   6.095 -26.496  0.00  0.00    -0.275 OA
ATOM     34  ND2 ASN A   9     -17.058   7.905 -27.794  0.00  0.00    -0.329 N 
ATOM     35 HD21 ASN A   9     -16.181   8.180 -27.307  0.00  0.00    +0.145 HD
ATOM     36 HD22 ASN A   9     -17.422   8.484 -28.578  0.00  0.00    +0.145 HD
ENDBRANCH  31  32
ENDBRANCH  21  31
ENDBRANCH  18  21
ENDBRANCH  16  17
BRANCH  16  37
ATOM     37  CB  PHE A   8     -21.665   4.331 -31.459  0.00  0.00    +0.055 C 
BRANCH  37  38
ATOM     38  CG  PHE A   8     -22.767   4.031 -32.430  0.00  0.00    -0.020 A 
ATOM     39  CD2 PHE A   8     -23.467   2.836 -32.367  0.00  0.00    -0.004 A 
ATOM     40  CE2 PHE A   8     -24.484   2.567 -33.258  0.00  0.00    -0.000 A 
ATOM     41  CZ  PHE A   8     -24.810   3.491 -34.230  0.00  0.00    -0.000 A 
ATOM     42  CE1 PHE A   8     -24.120   4.684 -34.305  0.00  0.00    -0.000 A 
ATOM     43  CD1 PHE A   8     -23.105   4.948 -33.410  0.00  0.00    -0.004 A 
ENDBRANCH  37  38
ENDBRANCH  16  37
ENDBRANCH  14  16
ENDBRANCH  11  12
BRANCH  11  44
ATOM     44  CB  LYS A   7     -26.107   2.948 -29.665  0.00  0.00    +0.029 C 
BRANCH  44  45
ATOM     45  CG  LYS A   7     -27.583   2.787 -29.347  0.00  0.00    +0.000 C 
BRANCH  45  46
ATOM     46  CD  LYS A   7     -28.430   2.898 -30.605  0.00  0.00    -0.024 C 
BRANCH  46  47
ATOM     47  CE  LYS A   7     -29.905   2.684 -30.300  0.00  0.00    -0.086 C 
BRANCH  47  48
ATOM     48  NZ  LYS A   7     -30.414   3.650 -29.286  0.00  0.00    +0.380 N 
ATOM     49  HZ1 LYS A   7     -29.880   3.535 -28.401  0.00  0.00    -0.089 HD
ATOM     50  HZ2 LYS A   7     -31.422   3.467 -29.110  0.00  0.00    -0.089 HD
ATOM     51  HZ3 LYS A   7     -30.294   4.620 -29.642  0.00  0.00    -0.089 HD
ENDBRANCH  47  48
ENDBRANCH  46  47
ENDBRANCH  45  46
ENDBRANCH  44  45
ENDBRANCH  11  44
ENDBRANCH   9  11
ENDBRANCH   6   7
BRANCH   6  52
ATOM     52  CB  VAL A   6     -27.594   6.795 -26.528  0.00  0.00    +0.027 C 
ATOM     53  CG2 VAL A   6     -27.842   8.190 -25.961  0.00  0.00    +0.002 C 
ATOM     54  CG1 VAL A   6     -28.153   6.680 -27.937  0.00  0.00    +0.002 C 
ENDBRANCH   6  52
ENDBRANCH   4   6
ENDBRANCH   1   2
BRANCH   1  56
ATOM     55  C   TYR A   4     -22.054  10.311 -27.500  0.00  0.00    +0.241 C 
ATOM     56  N   HIS A   5     -22.244   8.993 -27.511  0.00  0.00    -0.297 N 
ATOM     57  H   HIS A   5     -21.613   8.382 -26.954  0.00  0.00    +0.150 HD
ATOM     58  O   TYR A   4     -22.672  11.080 -28.238  0.00  0.00    -0.273 OA
BRANCH  55  59
ATOM     59  CA  TYR A   4     -21.015  10.846 -26.515  0.00  0.00    +0.153 C 
BRANCH  59  62
ATOM     60  C   VAL A   3     -19.505  12.748 -26.803  0.00  0.00    +0.241 C 
ATOM     61  O   VAL A   3     -18.507  12.050 -26.623  0.00  0.00    -0.273 OA
ATOM     62  N   TYR A   4     -20.744  12.263 -26.749  0.00  0.00    -0.297 N 
ATOM     63  H   TYR A   4     -21.545  12.914 -26.878  0.00  0.00    +0.150 HD
BRANCH  60  64
ATOM     64  CA  VAL A   3     -19.367  14.243 -27.099  0.00  0.00    +0.149 C 
BRANCH  64  67
ATOM     65  C   ARG A   2     -18.477  15.933 -25.571  0.00  0.00    +0.241 C 
ATOM     66  O   ARG A   2     -19.584  16.425 -25.349  0.00  0.00    -0.273 OA
ATOM     67  N   VAL A   3     -18.295  14.846 -26.316  0.00  0.00    -0.297 N 
ATOM     68  H   VAL A   3     -17.351  14.409 -26.341  0.00  0.00    +0.150 HD
BRANCH  65  69
ATOM     69  CA  ARG A   2     -17.214  16.554 -24.984  0.00  0.00    +0.149 C 
BRANCH  69  71
ATOM     70  C   GLY A   1     -17.488  18.730 -26.056  0.00  0.00    +0.240 C 
ATOM     71  N   ARG A   2     -17.312  18.011 -24.948  0.00  0.00    -0.297 N 
ATOM     72  H   ARG A   2     -17.243  18.500 -24.033  0.00  0.00    +0.150 HD
ATOM     73  O   GLY A   1     -17.546  18.231 -27.180  0.00  0.00    -0.274 OA
BRANCH  70  74
ATOM     74  CA  GLY A   1     -17.614  20.229 -25.877  0.00  0.00    +0.169 C 
BRANCH  74  75
ATOM     75  N   GLY A   1     -17.530  20.613 -24.483  0.00  0.00    -0.236 NA
ATOM     76  H   GLY A   1     -18.391  20.606 -23.899  0.00  0.00    +0.142 HD
ENDBRANCH  74  75
ENDBRANCH  70  74
ENDBRANCH  69  71
BRANCH  69  77
ATOM     77  CB  ARG A   2     -16.945  15.992 -23.586  0.00  0.00    +0.033 C 
BRANCH  77  78
ATOM     78  CG  ARG A   2     -15.468  15.956 -23.215  0.00  0.00    +0.045 C 
BRANCH  78  79
ATOM     79  CD  ARG A   2     -15.233  15.256 -21.882  0.00  0.00    +0.174 C 
BRANCH  79  80
ATOM     80  NE  ARG A   2     -15.840  15.986 -20.773  0.00  0.00    -0.265 N 
ATOM     81  CZ  ARG A   2     -15.263  17.007 -20.148  0.00  0.00    +0.342 C 
ATOM     82  NH2 ARG A   2     -15.889  17.615 -19.151  0.00  0.00    -0.292 N 
ATOM     83 HH21 ARG A   2     -15.436  18.414 -18.663  0.00  0.00    +0.255 HD
ATOM     84 HH22 ARG A   2     -16.833  17.293 -18.857  0.00  0.00    +0.255 HD
ATOM     85  NH1 ARG A   2     -14.062  17.424 -20.524  0.00  0.00    -0.292 N 
ATOM     86 HH11 ARG A   2     -13.612  18.223 -20.034  0.00  0.00    +0.255 HD
ATOM     87 HH12 ARG A   2     -13.570  16.952 -21.309  0.00  0.00    +0.255 HD
ATOM     88  HE  ARG A   2     -16.783  15.688 -20.452  0.00  0.00    +0.259 HD
ENDBRANCH  79  80
ENDBRANCH  78  79
ENDBRANCH  77  78
ENDBRANCH  69  77
ENDBRANCH  65  69
ENDBRANCH  64  67
BRANCH  64  89
ATOM     89  CB  VAL A   3     -19.117  14.454 -28.616  0.00  0.00    +0.027 C 
ATOM     90  CG2 VAL A   3     -19.059  15.939 -28.950  0.00  0.00    +0.002 C 
ATOM     91  CG1 VAL A   3     -20.180  13.765 -29.450  0.00  0.00    +0.002 C 
ENDBRANCH  64  89
ENDBRANCH  60  64
ENDBRANCH  59  62
BRANCH  59  92
ATOM     92  CB  TYR A   4     -21.506  10.625 -25.083  0.00  0.00    +0.055 C 
BRANCH  92  93
ATOM     93  CG  TYR A   4     -20.571  11.144 -24.014  0.00  0.00    -0.020 A 
ATOM     94  CD2 TYR A   4     -19.644  10.305 -23.410  0.00  0.00    -0.001 A 
ATOM     95  CE2 TYR A   4     -18.792  10.770 -22.429  0.00  0.00    +0.036 A 
ATOM     96  CZ  TYR A   4     -18.863  12.090 -22.035  0.00  0.00    +0.134 A 
ATOM     97  CE1 TYR A   4     -19.777  12.945 -22.617  0.00  0.00    +0.036 A 
ATOM     98  CD1 TYR A   4     -20.627  12.469 -23.597  0.00  0.00    -0.001 A 
BRANCH  96  99
ATOM     99  OH  TYR A   4     -18.015  12.554 -21.057  0.00  0.00    -0.506 OA
ATOM    100  HH  TYR A   4     -18.195  13.514 -20.894  0.00  0.00    +0.292 HD
ENDBRANCH  96  99
ENDBRANCH  92  93
ENDBRANCH  59  92
ENDBRANCH  55  59
ENDBRANCH   1  56
BRANCH   1 101
ATOM    101  CB  HIS A   5     -22.801   7.823 -29.614  0.00  0.00    +0.076 C 
BRANCH 101 102
ATOM    102  CG  HIS A   5     -23.887   7.429 -30.567  0.00  0.00    +0.082 A 
ATOM    103  ND1 HIS A   5     -24.585   6.245 -30.454  0.00  0.00    -0.227 NA
ATOM    104  CE1 HIS A   5     -25.482   6.176 -31.427  0.00  0.00    +0.199 A 
ATOM    105  NE2 HIS A   5     -25.389   7.261 -32.159  0.00  0.00    -0.221 NA
ATOM    106  CD2 HIS A   5     -24.399   8.070 -31.644  0.00  0.00    +0.115 A 
ENDBRANCH 101 102
ENDBRANCH   1 101
TORSDOF 39
REMARK  Name = ../refined-set-2016/4x8o/4x8o_pocket.pdb
REMARK  358 active torsions:
REMARK  status: ('A' for Active; 'I' for Inactive)
REMARK    1  A    between atoms: _1  and  _3
REMARK    2  A    between atoms: _3  and  _4
REMARK    3  A    between atoms: _3  and  _6
REMARK    4  A    between atoms: _6  and  _7
REMARK    5  A    between atoms: _10  and  _12
REMARK    6  A    between atoms: _12  and  _13
REMARK    7  A    between atoms: _12  and  _15
REMARK    8  A    between atoms: _15  and  _16
REMARK    9  A    between atoms: _19  and  _21
REMARK   10  A    between atoms: _21  and  _22
REMARK   11  A    between atoms: _24  and  _26
REMARK   12  A    between atoms: _26  and  _27
REMARK   13  A    between atoms: _31  and  _32
REMARK   14  A    between atoms: _37  and  _39
REMARK   15  A    between atoms: _39  and  _40
REMARK   16  A    between atoms: _42  and  _44
REMARK   17  A    between atoms: _44  and  _45
REMARK   18  A    between atoms: _48  and  _50
REMARK   19  A    between atoms: _50  and  _51
REMARK   20  A    between atoms: _53  and  _55
REMARK   21  A    between atoms: _55  and  _56
REMARK   22  A    between atoms: _55  and  _58
REMARK   23  A    between atoms: _58  and  _59
REMARK   24  A    between atoms: _59  and  _60
REMARK   25  A    between atoms: _60  and  _61
REMARK   26  A    between atoms: _61  and  _62
REMARK   27  A    between atoms: _66  and  _68
REMARK   28  A    between atoms: _68  and  _69
REMARK   29  A    between atoms: _71  and  _73
REMARK   30  A    between atoms: _73  and  _74
REMARK   31  A    between atoms: _73  and  _76
REMARK   32  A    between atoms: _76  and  _77
REMARK   33  A    between atoms: _80  and  _82
REMARK   34  A    between atoms: _82  and  _83
REMARK   35  A    between atoms: _82  and  _85
REMARK   36  A    between atoms: _85  and  _86
REMARK   37  A    between atoms: _86  and  _87
REMARK   38  A    between atoms: _92  and  _94
REMARK   39  A    between atoms: _94  and  _95
REMARK   40  A    between atoms: _98  and  _100
REMARK   41  A    between atoms: _100  and  _101
REMARK   42  A    between atoms: _100  and  _103
REMARK   43  A    between atoms: _103  and  _104
REMARK   44  A    between atoms: _104  and  _105
REMARK   45  A    between atoms: _110  and  _112
REMARK   46  A    between atoms: _112  and  _113
REMARK   47  A    between atoms: _112  and  _115
REMARK   48  A    between atoms: _115  and  _116
REMARK   49  A    between atoms: _122  and  _124
REMARK   50  A    between atoms: _124  and  _125
REMARK   51  A    between atoms: _124  and  _127
REMARK   52  A    between atoms: _127  and  _128
REMARK   53  A    between atoms: _128  and  _129
REMARK   54  A    between atoms: _134  and  _136
REMARK   55  A    between atoms: _136  and  _137
REMARK   56  A    between atoms: _136  and  _139
REMARK   57  A    between atoms: _139  and  _140
REMARK   58  A    between atoms: _142  and  _144
REMARK   59  A    between atoms: _144  and  _145
REMARK   60  A    between atoms: _144  and  _147
REMARK   61  A    between atoms: _147  and  _148
REMARK   62  A    between atoms: _151  and  _153
REMARK   63  A    between atoms: _153  and  _154
REMARK   64  A    between atoms: _156  and  _158
REMARK   65  A    between atoms: _158  and  _159
REMARK   66  A    between atoms: _158  and  _161
REMARK   67  A    between atoms: _161  and  _162
REMARK   68  A    between atoms: _165  and  _167
REMARK   69  A    between atoms: _167  and  _168
REMARK   70  A    between atoms: _167  and  _170
REMARK   71  A    between atoms: _170  and  _171
REMARK   72  A    between atoms: _171  and  _172
REMARK   73  A    between atoms: _174  and  _176
REMARK   74  A    between atoms: _176  and  _177
REMARK   75  A    between atoms: _176  and  _179
REMARK   76  A    between atoms: _179  and  _180
REMARK   77  A    between atoms: _183  and  _185
REMARK   78  A    between atoms: _185  and  _186
REMARK   79  A    between atoms: _185  and  _188
REMARK   80  A    between atoms: _188  and  _189
REMARK   81  A    between atoms: _189  and  _190
REMARK   82  A    between atoms: _190  and  _191
REMARK   83  A    between atoms: _200  and  _202
REMARK   84  A    between atoms: _202  and  _203
REMARK   85  A    between atoms: _206  and  _208
REMARK   86  A    between atoms: _208  and  _209
REMARK   87  A    between atoms: _208  and  _211
REMARK   88  A    between atoms: _211  and  _212
REMARK   89  A    between atoms: _212  and  _213
REMARK   90  A    between atoms: _213  and  _214
REMARK   91  A    between atoms: _214  and  _215
REMARK   92  A    between atoms: _219  and  _221
REMARK   93  A    between atoms: _221  and  _222
REMARK   94  A    between atoms: _221  and  _224
REMARK   95  A    between atoms: _224  and  _225
REMARK   96  A    between atoms: _228  and  _230
REMARK   97  A    between atoms: _230  and  _231
REMARK   98  A    between atoms: _230  and  _233
REMARK   99  A    between atoms: _233  and  _234
REMARK  100  A    between atoms: _237  and  _239
REMARK  101  A    between atoms: _239  and  _240
REMARK  102  A    between atoms: _239  and  _242
REMARK  103  A    between atoms: _242  and  _243
REMARK  104  A    between atoms: _243  and  _244
REMARK  105  A    between atoms: _246  and  _248
REMARK  106  A    between atoms: _248  and  _249
REMARK  107  A    between atoms: _248  and  _251
REMARK  108  A    between atoms: _251  and  _252
REMARK  109  A    between atoms: _255  and  _257
REMARK  110  A    between atoms: _257  and  _258
REMARK  111  A    between atoms: _261  and  _263
REMARK  112  A    between atoms: _263  and  _264
REMARK  113  A    between atoms: _266  and  _268
REMARK  114  A    between atoms: _268  and  _269
REMARK  115  A    between atoms: _268  and  _271
REMARK  116  A    between atoms: _271  and  _272
REMARK  117  A    between atoms: _272  and  _273
REMARK  118  A    between atoms: _273  and  _274
REMARK  119  A    between atoms: _274  and  _275
REMARK  120  A    between atoms: _279  and  _281
REMARK  121  A    between atoms: _281  and  _282
REMARK  122  A    between atoms: _281  and  _284
REMARK  123  A    between atoms: _284  and  _285
REMARK  124  A    between atoms: _288  and  _290
REMARK  125  A    between atoms: _290  and  _291
REMARK  126  A    between atoms: _290  and  _293
REMARK  127  A    between atoms: _296  and  _298
REMARK  128  A    between atoms: _298  and  _299
REMARK  129  A    between atoms: _298  and  _301
REMARK  130  A    between atoms: _301  and  _302
REMARK  131  A    between atoms: _305  and  _307
REMARK  132  A    between atoms: _307  and  _308
REMARK  133  A    between atoms: _307  and  _310
REMARK  134  A    between atoms: _310  and  _311
REMARK  135  A    between atoms: _314  and  _316
REMARK  136  A    between atoms: _316  and  _317
REMARK  137  A    between atoms: _316  and  _319
REMARK  138  A    between atoms: _319  and  _320
REMARK  139  A    between atoms: _320  and  _321
REMARK  140  A    between atoms: _324  and  _326
REMARK  141  A    between atoms: _326  and  _327
REMARK  142  A    between atoms: _326  and  _329
REMARK  143  A    between atoms: _329  and  _330
REMARK  144  A    between atoms: _333  and  _335
REMARK  145  A    between atoms: _335  and  _336
REMARK  146  A    between atoms: _335  and  _338
REMARK  147  A    between atoms: _341  and  _343
REMARK  148  A    between atoms: _343  and  _344
REMARK  149  A    between atoms: _343  and  _346
REMARK  150  A    between atoms: _346  and  _347
REMARK  151  A    between atoms: _350  and  _352
REMARK  152  A    between atoms: _352  and  _353
REMARK  153  A    between atoms: _352  and  _355
REMARK  154  A    between atoms: _358  and  _360
REMARK  155  A    between atoms: _360  and  _361
REMARK  156  A    between atoms: _360  and  _363
REMARK  157  A    between atoms: _363  and  _364
REMARK  158  A    between atoms: _367  and  _369
REMARK  159  A    between atoms: _369  and  _370
REMARK  160  A    between atoms: _372  and  _374
REMARK  161  A    between atoms: _374  and  _375
REMARK  162  A    between atoms: _374  and  _377
REMARK  163  A    between atoms: _377  and  _378
REMARK  164  A    between atoms: _385  and  _386
REMARK  165  A    between atoms: _391  and  _393
REMARK  166  A    between atoms: _393  and  _394
REMARK  167  A    between atoms: _393  and  _396
REMARK  168  A    between atoms: _396  and  _397
REMARK  169  A    between atoms: _397  and  _398
REMARK  170  A    between atoms: _398  and  _399
REMARK  171  A    between atoms: _408  and  _410
REMARK  172  A    between atoms: _410  and  _411
REMARK  173  A    between atoms: _410  and  _413
REMARK  174  A    between atoms: _413  and  _414
REMARK  175  A    between atoms: _417  and  _419
REMARK  176  A    between atoms: _419  and  _420
REMARK  177  A    between atoms: _419  and  _422
REMARK  178  A    between atoms: _422  and  _423
REMARK  179  A    between atoms: _423  and  _424
REMARK  180  A    between atoms: _429  and  _431
REMARK  181  A    between atoms: _431  and  _432
REMARK  182  A    between atoms: _431  and  _434
REMARK  183  A    between atoms: _434  and  _435
REMARK  184  A    between atoms: _441  and  _443
REMARK  185  A    between atoms: _443  and  _444
REMARK  186  A    between atoms: _443  and  _446
REMARK  187  A    between atoms: _449  and  _451
REMARK  188  A    between atoms: _451  and  _452
REMARK  189  A    between atoms: _451  and  _454
REMARK  190  A    between atoms: _454  and  _455
REMARK  191  A    between atoms: _458  and  _460
REMARK  192  A    between atoms: _460  and  _461
REMARK  193  A    between atoms: _460  and  _463
REMARK  194  A    between atoms: _463  and  _464
REMARK  195  A    between atoms: _467  and  _469
REMARK  196  A    between atoms: _469  and  _470
REMARK  197  A    between atoms: _469  and  _472
REMARK  198  A    between atoms: _475  and  _477
REMARK  199  A    between atoms: _477  and  _478
REMARK  200  A    between atoms: _477  and  _480
REMARK  201  A    between atoms: _480  and  _481
REMARK  202  A    between atoms: _484  and  _486
REMARK  203  A    between atoms: _486  and  _487
REMARK  204  A    between atoms: _486  and  _489
REMARK  205  A    between atoms: _489  and  _490
REMARK  206  A    between atoms: _490  and  _491
REMARK  207  A    between atoms: _491  and  _492
REMARK  208  A    between atoms: _501  and  _503
REMARK  209  A    between atoms: _503  and  _504
REMARK  210  A    between atoms: _503  and  _506
REMARK  211  A    between atoms: _506  and  _507
REMARK  212  A    between atoms: _510  and  _512
REMARK  213  A    between atoms: _512  and  _513
REMARK  214  A    between atoms: _512  and  _515
REMARK  215  A    between atoms: _518  and  _520
REMARK  216  A    between atoms: _520  and  _521
REMARK  217  A    between atoms: _523  and  _525
REMARK  218  A    between atoms: _525  and  _526
REMARK  219  A    between atoms: _525  and  _528
REMARK  220  A    between atoms: _528  and  _529
REMARK  221  A    between atoms: _529  and  _530
REMARK  222  A    between atoms: _530  and  _531
REMARK  223  A    between atoms: _540  and  _542
REMARK  224  A    between atoms: _542  and  _543
REMARK  225  A    between atoms: _542  and  _545
REMARK  226  A    between atoms: _545  and  _546
REMARK  227  A    between atoms: _546  and  _547
REMARK  228  A    between atoms: _547  and  _548
REMARK  229  A    between atoms: _557  and  _559
REMARK  230  A    between atoms: _559  and  _560
REMARK  231  A    between atoms: _559  and  _562
REMARK  232  A    between atoms: _565  and  _567
REMARK  233  A    between atoms: _567  and  _568
REMARK  234  A    between atoms: _570  and  _572
REMARK  235  A    between atoms: _572  and  _573
REMARK  236  A    between atoms: _572  and  _575
REMARK  237  A    between atoms: _575  and  _576
REMARK  238  A    between atoms: _576  and  _577
REMARK  239  A    between atoms: _577  and  _578
REMARK  240  A    between atoms: _587  and  _589
REMARK  241  A    between atoms: _589  and  _590
REMARK  242  A    between atoms: _589  and  _592
REMARK  243  A    between atoms: _595  and  _597
REMARK  244  A    between atoms: _597  and  _598
REMARK  245  A    between atoms: _597  and  _600
REMARK  246  A    between atoms: _600  and  _601
REMARK  247  A    between atoms: _606  and  _607
REMARK  248  A    between atoms: _609  and  _611
REMARK  249  A    between atoms: _611  and  _612
REMARK  250  A    between atoms: _611  and  _614
REMARK  251  A    between atoms: _614  and  _615
REMARK  252  A    between atoms: _620  and  _622
REMARK  253  A    between atoms: _622  and  _623
REMARK  254  A    between atoms: _622  and  _625
REMARK  255  A    between atoms: _628  and  _630
REMARK  256  A    between atoms: _630  and  _631
REMARK  257  A    between atoms: _630  and  _633
REMARK  258  A    between atoms: _633  and  _634
REMARK  259  A    between atoms: _634  and  _635
REMARK  260  A    between atoms: _635  and  _636
REMARK  261  A    between atoms: _636  and  _637
REMARK  262  A    between atoms: _641  and  _643
REMARK  263  A    between atoms: _643  and  _644
REMARK  264  A    between atoms: _643  and  _646
REMARK  265  A    between atoms: _646  and  _647
REMARK  266  A    between atoms: _653  and  _655
REMARK  267  A    between atoms: _655  and  _656
REMARK  268  A    between atoms: _655  and  _658
REMARK  269  A    between atoms: _658  and  _659
REMARK  270  A    between atoms: _665  and  _666
REMARK  271  A    between atoms: _671  and  _673
REMARK  272  A    between atoms: _673  and  _674
REMARK  273  A    between atoms: _673  and  _676
REMARK  274  A    between atoms: _676  and  _677
REMARK  275  A    between atoms: _677  and  _678
REMARK  276  A    between atoms: _678  and  _679
REMARK  277  A    between atoms: _688  and  _690
REMARK  278  A    between atoms: _690  and  _691
REMARK  279  A    between atoms: _690  and  _693
REMARK  280  A    between atoms: _693  and  _694
REMARK  281  A    between atoms: _697  and  _699
REMARK  282  A    between atoms: _699  and  _700
REMARK  283  A    between atoms: _699  and  _702
REMARK  284  A    between atoms: _702  and  _703
REMARK  285  A    between atoms: _706  and  _708
REMARK  286  A    between atoms: _708  and  _709
REMARK  287  A    between atoms: _708  and  _711
REMARK  288  A    between atoms: _711  and  _712
REMARK  289  A    between atoms: _715  and  _717
REMARK  290  A    between atoms: _717  and  _718
REMARK  291  A    between atoms: _717  and  _720
REMARK  292  A    between atoms: _723  and  _725
REMARK  293  A    between atoms: _725  and  _726
REMARK  294  A    between atoms: _725  and  _728
REMARK  295  A    between atoms: _728  and  _729
REMARK  296  A    between atoms: _729  and  _730
REMARK  297  A    between atoms: _730  and  _731
REMARK  298  A    between atoms: _731  and  _732
REMARK  299  A    between atoms: _736  and  _738
REMARK  300  A    between atoms: _738  and  _739
REMARK  301  A    between atoms: _738  and  _741
REMARK  302  A    between atoms: _741  and  _742
REMARK  303  A    between atoms: _742  and  _743
REMARK  304  A    between atoms: _743  and  _744
REMARK  305  A    between atoms: _753  and  _755
REMARK  306  A    between atoms: _755  and  _756
REMARK  307  A    between atoms: _755  and  _758
REMARK  308  A    between atoms: _758  and  _759
REMARK  309  A    between atoms: _762  and  _764
REMARK  310  A    between atoms: _764  and  _765
REMARK  311  A    between atoms: _764  and  _767
REMARK  312  A    between atoms: _767  and  _768
REMARK  313  A    between atoms: _768  and  _769
REMARK  314  A    between atoms: _772  and  _774
REMARK  315  A    between atoms: _774  and  _775
REMARK  316  A    between atoms: _774  and  _777
REMARK  317  A    between atoms: _777  and  _778
REMARK  318  A    between atoms: _788  and  _790
REMARK  319  A    between atoms: _790  and  _791
REMARK  320  A    between atoms: _790  and  _793
REMARK  321  A    between atoms: _793  and  _794
REMARK  322  A    between atoms: _797  and  _799
REMARK  323  A    between atoms: _799  and  _800
REMARK  324  A    between atoms: _799  and  _802
REMARK  325  A    between atoms: _802  and  _803
REMARK  326  A    between atoms: _806  and  _808
REMARK  327  A    between atoms: _808  and  _809
REMARK  328  A    between atoms: _811  and  _813
REMARK  329  A    between atoms: _813  and  _814
REMARK  330  A    between atoms: _813  and  _816
REMARK  331  A    between atoms: _816  and  _817
REMARK  332  A    between atoms: _820  and  _822
REMARK  333  A    between atoms: _822  and  _823
REMARK  334  A    between atoms: _822  and  _825
REMARK  335  A    between atoms: _825  and  _826
REMARK  336  A    between atoms: _826  and  _827
REMARK  337  A    between atoms: _827  and  _828
REMARK  338  A    between atoms: _828  and  _829
REMARK  339  A    between atoms: _834  and  _835
REMARK  340  A    between atoms: _840  and  _842
REMARK  341  A    between atoms: _842  and  _843
REMARK  342  A    between atoms: _842  and  _845
REMARK  343  A    between atoms: _848  and  _850
REMARK  344  A    between atoms: _850  and  _851
REMARK  345  A    between atoms: _854  and  _856
REMARK  346  A    between atoms: _856  and  _857
REMARK  347  A    between atoms: _856  and  _859
REMARK  348  A    between atoms: _859  and  _860
REMARK  349  A    between atoms: _860  and  _861
REMARK  350  A    between atoms: _864  and  _866
REMARK  351  A    between atoms: _866  and  _867
REMARK  352  A    between atoms: _866  and  _869
REMARK  353  A    between atoms: _872  and  _874
REMARK  354  A    between atoms: _874  and  _875
REMARK  355  A    between atoms: _874  and  _877
REMARK  356  A    between atoms: _877  and  _878
REMARK  357  A    between atoms: _878  and  _879
REMARK  358  A    between atoms: _879  and  _880
REMARK                            x       y       z     vdW  Elec       q    Type
REMARK                         _______ _______ _______ _____ _____    ______ ____
ROOT
ATOM      1  NE  ARG A   1     -25.013  19.974 -32.181  0.00  0.00    -0.265 N 
ATOM      2  HE  ARG A   1     -25.935  20.406 -32.396  0.00  0.00    +0.259 HD
ATOM      3  CZ  ARG A   1     -24.115  19.910 -33.159  0.00  0.00    +0.342 C 
ATOM      4  NH2 ARG A   1     -22.918  19.388 -32.932  0.00  0.00    -0.292 N 
ATOM      5 HH21 ARG A   1     -22.679  19.027 -31.986  0.00  0.00    +0.255 HD
ATOM      6 HH22 ARG A   1     -22.218  19.339 -33.699  0.00  0.00    +0.255 HD
ATOM      7  NH1 ARG A   1     -24.412  20.381 -34.362  0.00  0.00    -0.292 N 
ATOM      8 HH11 ARG A   1     -25.347  20.800 -34.540  0.00  0.00    +0.255 HD
ATOM      9 HH12 ARG A   1     -23.710  20.331 -35.128  0.00  0.00    +0.255 HD
ENDROOT
BRANCH   1  10
ATOM     10  CD  ARG A   1     -24.792  19.479 -30.826  0.00  0.00    +0.174 C 
BRANCH  10  11
ATOM     11  CG  ARG A   1     -25.939  19.838 -29.892  0.00  0.00    +0.045 C 
BRANCH  11  12
ATOM     12  CB  ARG A   1     -27.286  19.447 -30.484  0.00  0.00    +0.029 C 
BRANCH  12  13
ATOM     13  CA  ARG A   1     -28.445  19.523 -29.487  0.00  0.00    +0.133 C 
BRANCH  13  14
ATOM     14  N   ARG A   1     -28.468  18.330 -28.646  0.00  0.00    -0.239 NA
ATOM     15  H   ARG A   1     -27.851  17.528 -28.886  0.00  0.00    +0.142 HD
ENDBRANCH  13  14
BRANCH  13  16
ATOM     16  C   ARG A   1     -29.770  19.713 -30.224  0.00  0.00    +0.224 C 
ATOM     17  O   ARG A   1     -30.381  18.744 -30.682  0.00  0.00    -0.287 OA
ENDBRANCH  13  16
ENDBRANCH  12  13
ENDBRANCH  11  12
ENDBRANCH  10  11
ENDBRANCH   1  10
TORSDOF 6
REMARK  Name = ../refined-set-2016/4x8o/4x8o_pocket.pdb
REMARK  358 active torsions:
REMARK  status: ('A' for Active; 'I' for Inactive)
REMARK    1  A    between atoms: _1  and  _3
REMARK    2  A    between atoms: _3  and  _4
REMARK    3  A    between atoms: _3  and  _6
REMARK    4  A    between atoms: _6  and  _7
REMARK    5  A    between atoms: _10  and  _12
REMARK    6  A    between atoms: _12  and  _13
REMARK    7  A    between atoms: _12  and  _15
REMARK    8  A    between atoms: _15  and  _16
REMARK    9  A    between atoms: _19  and  _21
REMARK   10  A    between atoms: _21  and  _22
REMARK   11  A    between atoms: _24  and  _26
REMARK   12  A    between atoms: _26  and  _27
REMARK   13  A    between atoms: _31  and  _32
REMARK   14  A    between atoms: _37  and  _39
REMARK   15  A    between atoms: _39  and  _40
REMARK   16  A    between atoms: _42  and  _44
REMARK   17  A    between atoms: _44  and  _45
REMARK   18  A    between atoms: _48  and  _50
REMARK   19  A    between atoms: _50  and  _51
REMARK   20  A    between atoms: _53  and  _55
REMARK   21  A    between atoms: _55  and  _56
REMARK   22  A    between atoms: _55  and  _58
REMARK   23  A    between atoms: _58  and  _59
REMARK   24  A    between atoms: _59  and  _60
REMARK   25  A    between atoms: _60  and  _61
REMARK   26  A    between atoms: _61  and  _62
REMARK   27  A    between atoms: _66  and  _68
REMARK   28  A    between atoms: _68  and  _69
REMARK   29  A    between atoms: _71  and  _73
REMARK   30  A    between atoms: _73  and  _74
REMARK   31  A    between atoms: _73  and  _76
REMARK   32  A    between atoms: _76  and  _77
REMARK   33  A    between atoms: _80  and  _82
REMARK   34  A    between atoms: _82  and  _83
REMARK   35  A    between atoms: _82  and  _85
REMARK   36  A    between atoms: _85  and  _86
REMARK   37  A    between atoms: _86  and  _87
REMARK   38  A    between atoms: _92  and  _94
REMARK   39  A    between atoms: _94  and  _95
REMARK   40  A    between atoms: _98  and  _100
REMARK   41  A    between atoms: _100  and  _101
REMARK   42  A    between atoms: _100  and  _103
REMARK   43  A    between atoms: _103  and  _104
REMARK   44  A    between atoms: _104  and  _105
REMARK   45  A    between atoms: _110  and  _112
REMARK   46  A    between atoms: _112  and  _113
REMARK   47  A    between atoms: _112  and  _115
REMARK   48  A    between atoms: _115  and  _116
REMARK   49  A    between atoms: _122  and  _124
REMARK   50  A    between atoms: _124  and  _125
REMARK   51  A    between atoms: _124  and  _127
REMARK   52  A    between atoms: _127  and  _128
REMARK   53  A    between atoms: _128  and  _129
REMARK   54  A    between atoms: _134  and  _136
REMARK   55  A    between atoms: _136  and  _137
REMARK   56  A    between atoms: _136  and  _139
REMARK   57  A    between atoms: _139  and  _140
REMARK   58  A    between atoms: _142  and  _144
REMARK   59  A    between atoms: _144  and  _145
REMARK   60  A    between atoms: _144  and  _147
REMARK   61  A    between atoms: _147  and  _148
REMARK   62  A    between atoms: _151  and  _153
REMARK   63  A    between atoms: _153  and  _154
REMARK   64  A    between atoms: _156  and  _158
REMARK   65  A    between atoms: _158  and  _159
REMARK   66  A    between atoms: _158  and  _161
REMARK   67  A    between atoms: _161  and  _162
REMARK   68  A    between atoms: _165  and  _167
REMARK   69  A    between atoms: _167  and  _168
REMARK   70  A    between atoms: _167  and  _170
REMARK   71  A    between atoms: _170  and  _171
REMARK   72  A    between atoms: _171  and  _172
REMARK   73  A    between atoms: _174  and  _176
REMARK   74  A    between atoms: _176  and  _177
REMARK   75  A    between atoms: _176  and  _179
REMARK   76  A    between atoms: _179  and  _180
REMARK   77  A    between atoms: _183  and  _185
REMARK   78  A    between atoms: _185  and  _186
REMARK   79  A    between atoms: _185  and  _188
REMARK   80  A    between atoms: _188  and  _189
REMARK   81  A    between atoms: _189  and  _190
REMARK   82  A    between atoms: _190  and  _191
REMARK   83  A    between atoms: _200  and  _202
REMARK   84  A    between atoms: _202  and  _203
REMARK   85  A    between atoms: _206  and  _208
REMARK   86  A    between atoms: _208  and  _209
REMARK   87  A    between atoms: _208  and  _211
REMARK   88  A    between atoms: _211  and  _212
REMARK   89  A    between atoms: _212  and  _213
REMARK   90  A    between atoms: _213  and  _214
REMARK   91  A    between atoms: _214  and  _215
REMARK   92  A    between atoms: _219  and  _221
REMARK   93  A    between atoms: _221  and  _222
REMARK   94  A    between atoms: _221  and  _224
REMARK   95  A    between atoms: _224  and  _225
REMARK   96  A    between atoms: _228  and  _230
REMARK   97  A    between atoms: _230  and  _231
REMARK   98  A    between atoms: _230  and  _233
REMARK   99  A    between atoms: _233  and  _234
REMARK  100  A    between atoms: _237  and  _239
REMARK  101  A    between atoms: _239  and  _240
REMARK  102  A    between atoms: _239  and  _242
REMARK  103  A    between atoms: _242  and  _243
REMARK  104  A    between atoms: _243  and  _244
REMARK  105  A    between atoms: _246  and  _248
REMARK  106  A    between atoms: _248  and  _249
REMARK  107  A    between atoms: _248  and  _251
REMARK  108  A    between atoms: _251  and  _252
REMARK  109  A    between atoms: _255  and  _257
REMARK  110  A    between atoms: _257  and  _258
REMARK  111  A    between atoms: _261  and  _263
REMARK  112  A    between atoms: _263  and  _264
REMARK  113  A    between atoms: _266  and  _268
REMARK  114  A    between atoms: _268  and  _269
REMARK  115  A    between atoms: _268  and  _271
REMARK  116  A    between atoms: _271  and  _272
REMARK  117  A    between atoms: _272  and  _273
REMARK  118  A    between atoms: _273  and  _274
REMARK  119  A    between atoms: _274  and  _275
REMARK  120  A    between atoms: _279  and  _281
REMARK  121  A    between atoms: _281  and  _282
REMARK  122  A    between atoms: _281  and  _284
REMARK  123  A    between atoms: _284  and  _285
REMARK  124  A    between atoms: _288  and  _290
REMARK  125  A    between atoms: _290  and  _291
REMARK  126  A    between atoms: _290  and  _293
REMARK  127  A    between atoms: _296  and  _298
REMARK  128  A    between atoms: _298  and  _299
REMARK  129  A    between atoms: _298  and  _301
REMARK  130  A    between atoms: _301  and  _302
REMARK  131  A    between atoms: _305  and  _307
REMARK  132  A    between atoms: _307  and  _308
REMARK  133  A    between atoms: _307  and  _310
REMARK  134  A    between atoms: _310  and  _311
REMARK  135  A    between atoms: _314  and  _316
REMARK  136  A    between atoms: _316  and  _317
REMARK  137  A    between atoms: _316  and  _319
REMARK  138  A    between atoms: _319  and  _320
REMARK  139  A    between atoms: _320  and  _321
REMARK  140  A    between atoms: _324  and  _326
REMARK  141  A    between atoms: _326  and  _327
REMARK  142  A    between atoms: _326  and  _329
REMARK  143  A    between atoms: _329  and  _330
REMARK  144  A    between atoms: _333  and  _335
REMARK  145  A    between atoms: _335  and  _336
REMARK  146  A    between atoms: _335  and  _338
REMARK  147  A    between atoms: _341  and  _343
REMARK  148  A    between atoms: _343  and  _344
REMARK  149  A    between atoms: _343  and  _346
REMARK  150  A    between atoms: _346  and  _347
REMARK  151  A    between atoms: _350  and  _352
REMARK  152  A    between atoms: _352  and  _353
REMARK  153  A    between atoms: _352  and  _355
REMARK  154  A    between atoms: _358  and  _360
REMARK  155  A    between atoms: _360  and  _361
REMARK  156  A    between atoms: _360  and  _363
REMARK  157  A    between atoms: _363  and  _364
REMARK  158  A    between atoms: _367  and  _369
REMARK  159  A    between atoms: _369  and  _370
REMARK  160  A    between atoms: _372  and  _374
REMARK  161  A    between atoms: _374  and  _375
REMARK  162  A    between atoms: _374  and  _377
REMARK  163  A    between atoms: _377  and  _378
REMARK  164  A    between atoms: _385  and  _386
REMARK  165  A    between atoms: _391  and  _393
REMARK  166  A    between atoms: _393  and  _394
REMARK  167  A    between atoms: _393  and  _396
REMARK  168  A    between atoms: _396  and  _397
REMARK  169  A    between atoms: _397  and  _398
REMARK  170  A    between atoms: _398  and  _399
REMARK  171  A    between atoms: _408  and  _410
REMARK  172  A    between atoms: _410  and  _411
REMARK  173  A    between atoms: _410  and  _413
REMARK  174  A    between atoms: _413  and  _414
REMARK  175  A    between atoms: _417  and  _419
REMARK  176  A    between atoms: _419  and  _420
REMARK  177  A    between atoms: _419  and  _422
REMARK  178  A    between atoms: _422  and  _423
REMARK  179  A    between atoms: _423  and  _424
REMARK  180  A    between atoms: _429  and  _431
REMARK  181  A    between atoms: _431  and  _432
REMARK  182  A    between atoms: _431  and  _434
REMARK  183  A    between atoms: _434  and  _435
REMARK  184  A    between atoms: _441  and  _443
REMARK  185  A    between atoms: _443  and  _444
REMARK  186  A    between atoms: _443  and  _446
REMARK  187  A    between atoms: _449  and  _451
REMARK  188  A    between atoms: _451  and  _452
REMARK  189  A    between atoms: _451  and  _454
REMARK  190  A    between atoms: _454  and  _455
REMARK  191  A    between atoms: _458  and  _460
REMARK  192  A    between atoms: _460  and  _461
REMARK  193  A    between atoms: _460  and  _463
REMARK  194  A    between atoms: _463  and  _464
REMARK  195  A    between atoms: _467  and  _469
REMARK  196  A    between atoms: _469  and  _470
REMARK  197  A    between atoms: _469  and  _472
REMARK  198  A    between atoms: _475  and  _477
REMARK  199  A    between atoms: _477  and  _478
REMARK  200  A    between atoms: _477  and  _480
REMARK  201  A    between atoms: _480  and  _481
REMARK  202  A    between atoms: _484  and  _486
REMARK  203  A    between atoms: _486  and  _487
REMARK  204  A    between atoms: _486  and  _489
REMARK  205  A    between atoms: _489  and  _490
REMARK  206  A    between atoms: _490  and  _491
REMARK  207  A    between atoms: _491  and  _492
REMARK  208  A    between atoms: _501  and  _503
REMARK  209  A    between atoms: _503  and  _504
REMARK  210  A    between atoms: _503  and  _506
REMARK  211  A    between atoms: _506  and  _507
REMARK  212  A    between atoms: _510  and  _512
REMARK  213  A    between atoms: _512  and  _513
REMARK  214  A    between atoms: _512  and  _515
REMARK  215  A    between atoms: _518  and  _520
REMARK  216  A    between atoms: _520  and  _521
REMARK  217  A    between atoms: _523  and  _525
REMARK  218  A    between atoms: _525  and  _526
REMARK  219  A    between atoms: _525  and  _528
REMARK  220  A    between atoms: _528  and  _529
REMARK  221  A    between atoms: _529  and  _530
REMARK  222  A    between atoms: _530  and  _531
REMARK  223  A    between atoms: _540  and  _542
REMARK  224  A    between atoms: _542  and  _543
REMARK  225  A    between atoms: _542  and  _545
REMARK  226  A    between atoms: _545  and  _546
REMARK  227  A    between atoms: _546  and  _547
REMARK  228  A    between atoms: _547  and  _548
REMARK  229  A    between atoms: _557  and  _559
REMARK  230  A    between atoms: _559  and  _560
REMARK  231  A    between atoms: _559  and  _562
REMARK  232  A    between atoms: _565  and  _567
REMARK  233  A    between atoms: _567  and  _568
REMARK  234  A    between atoms: _570  and  _572
REMARK  235  A    between atoms: _572  and  _573
REMARK  236  A    between atoms: _572  and  _575
REMARK  237  A    between atoms: _575  and  _576
REMARK  238  A    between atoms: _576  and  _577
REMARK  239  A    between atoms: _577  and  _578
REMARK  240  A    between atoms: _587  and  _589
REMARK  241  A    between atoms: _589  and  _590
REMARK  242  A    between atoms: _589  and  _592
REMARK  243  A    between atoms: _595  and  _597
REMARK  244  A    between atoms: _597  and  _598
REMARK  245  A    between atoms: _597  and  _600
REMARK  246  A    between atoms: _600  and  _601
REMARK  247  A    between atoms: _606  and  _607
REMARK  248  A    between atoms: _609  and  _611
REMARK  249  A    between atoms: _611  and  _612
REMARK  250  A    between atoms: _611  and  _614
REMARK  251  A    between atoms: _614  and  _615
REMARK  252  A    between atoms: _620  and  _622
REMARK  253  A    between atoms: _622  and  _623
REMARK  254  A    between atoms: _622  and  _625
REMARK  255  A    between atoms: _628  and  _630
REMARK  256  A    between atoms: _630  and  _631
REMARK  257  A    between atoms: _630  and  _633
REMARK  258  A    between atoms: _633  and  _634
REMARK  259  A    between atoms: _634  and  _635
REMARK  260  A    between atoms: _635  and  _636
REMARK  261  A    between atoms: _636  and  _637
REMARK  262  A    between atoms: _641  and  _643
REMARK  263  A    between atoms: _643  and  _644
REMARK  264  A    between atoms: _643  and  _646
REMARK  265  A    between atoms: _646  and  _647
REMARK  266  A    between atoms: _653  and  _655
REMARK  267  A    between atoms: _655  and  _656
REMARK  268  A    between atoms: _655  and  _658
REMARK  269  A    between atoms: _658  and  _659
REMARK  270  A    between atoms: _665  and  _666
REMARK  271  A    between atoms: _671  and  _673
REMARK  272  A    between atoms: _673  and  _674
REMARK  273  A    between atoms: _673  and  _676
REMARK  274  A    between atoms: _676  and  _677
REMARK  275  A    between atoms: _677  and  _678
REMARK  276  A    between atoms: _678  and  _679
REMARK  277  A    between atoms: _688  and  _690
REMARK  278  A    between atoms: _690  and  _691
REMARK  279  A    between atoms: _690  and  _693
REMARK  280  A    between atoms: _693  and  _694
REMARK  281  A    between atoms: _697  and  _699
REMARK  282  A    between atoms: _699  and  _700
REMARK  283  A    between atoms: _699  and  _702
REMARK  284  A    between atoms: _702  and  _703
REMARK  285  A    between atoms: _706  and  _708
REMARK  286  A    between atoms: _708  and  _709
REMARK  287  A    between atoms: _708  and  _711
REMARK  288  A    between atoms: _711  and  _712
REMARK  289  A    between atoms: _715  and  _717
REMARK  290  A    between atoms: _717  and  _718
REMARK  291  A    between atoms: _717  and  _720
REMARK  292  A    between atoms: _723  and  _725
REMARK  293  A    between atoms: _725  and  _726
REMARK  294  A    between atoms: _725  and  _728
REMARK  295  A    between atoms: _728  and  _729
REMARK  296  A    between atoms: _729  and  _730
REMARK  297  A    between atoms: _730  and  _731
REMARK  298  A    between atoms: _731  and  _732
REMARK  299  A    between atoms: _736  and  _738
REMARK  300  A    between atoms: _738  and  _739
REMARK  301  A    between atoms: _738  and  _741
REMARK  302  A    between atoms: _741  and  _742
REMARK  303  A    between atoms: _742  and  _743
REMARK  304  A    between atoms: _743  and  _744
REMARK  305  A    between atoms: _753  and  _755
REMARK  306  A    between atoms: _755  and  _756
REMARK  307  A    between atoms: _755  and  _758
REMARK  308  A    between atoms: _758  and  _759
REMARK  309  A    between atoms: _762  and  _764
REMARK  310  A    between atoms: _764  and  _765
REMARK  311  A    between atoms: _764  and  _767
REMARK  312  A    between atoms: _767  and  _768
REMARK  313  A    between atoms: _768  and  _769
REMARK  314  A    between atoms: _772  and  _774
REMARK  315  A    between atoms: _774  and  _775
REMARK  316  A    between atoms: _774  and  _777
REMARK  317  A    between atoms: _777  and  _778
REMARK  318  A    between atoms: _788  and  _790
REMARK  319  A    between atoms: _790  and  _791
REMARK  320  A    between atoms: _790  and  _793
REMARK  321  A    between atoms: _793  and  _794
REMARK  322  A    between atoms: _797  and  _799
REMARK  323  A    between atoms: _799  and  _800
REMARK  324  A    between atoms: _799  and  _802
REMARK  325  A    between atoms: _802  and  _803
REMARK  326  A    between atoms: _806  and  _808
REMARK  327  A    between atoms: _808  and  _809
REMARK  328  A    between atoms: _811  and  _813
REMARK  329  A    between atoms: _813  and  _814
REMARK  330  A    between atoms: _813  and  _816
REMARK  331  A    between atoms: _816  and  _817
REMARK  332  A    between atoms: _820  and  _822
REMARK  333  A    between atoms: _822  and  _823
REMARK  334  A    between atoms: _822  and  _825
REMARK  335  A    between atoms: _825  and  _826
REMARK  336  A    between atoms: _826  and  _827
REMARK  337  A    between atoms: _827  and  _828
REMARK  338  A    between atoms: _828  and  _829
REMARK  339  A    between atoms: _834  and  _835
REMARK  340  A    between atoms: _840  and  _842
REMARK  341  A    between atoms: _842  and  _843
REMARK  342  A    between atoms: _842  and  _845
REMARK  343  A    between atoms: _848  and  _850
REMARK  344  A    between atoms: _850  and  _851
REMARK  345  A    between atoms: _854  and  _856
REMARK  346  A    between atoms: _856  and  _857
REMARK  347  A    between atoms: _856  and  _859
REMARK  348  A    between atoms: _859  and  _860
REMARK  349  A    between atoms: _860  and  _861
REMARK  350  A    between atoms: _864  and  _866
REMARK  351  A    between atoms: _866  and  _867
REMARK  352  A    between atoms: _866  and  _869
REMARK  353  A    between atoms: _872  and  _874
REMARK  354  A    between atoms: _874  and  _875
REMARK  355  A    between atoms: _874  and  _877
REMARK  356  A    between atoms: _877  and  _878
REMARK  357  A    between atoms: _878  and  _879
REMARK  358  A    between atoms: _879  and  _880
REMARK                            x       y       z     vdW  Elec       q    Type
REMARK                         _______ _______ _______ _____ _____    ______ ____
ROOT
ATOM      1  C   ASP A   1     -29.818  19.324 -34.885  0.00  0.00    +0.239 C 
ATOM      2  N   ASP A   2     -29.981  18.391 -33.949  0.00  0.00    -0.298 N 
ATOM      3  H   ASP A   2     -30.422  18.645 -33.042  0.00  0.00    +0.150 HD
ATOM      4  O   ASP A   1     -29.379  19.068 -36.006  0.00  0.00    -0.274 OA
ENDROOT
BRANCH   1   5
ATOM      5  CA  ASP A   1     -30.209  20.758 -34.522  0.00  0.00    +0.156 C 
BRANCH   5   6
ATOM      6  N   ASP A   1     -30.314  20.975 -33.083  0.00  0.00    -0.238 NA
ATOM      7  H   ASP A   1     -29.450  21.159 -32.534  0.00  0.00    +0.142 HD
ENDBRANCH   5   6
BRANCH   5   8
ATOM      8  CB  ASP A   1     -29.195  21.738 -35.125  0.00  0.00    +0.140 C 
BRANCH   8   9
ATOM      9  CG  ASP A   1     -27.778  21.510 -34.613  0.00  0.00    +0.367 C 
ATOM     10  OD2 ASP A   1     -27.620  20.951 -33.506  0.00  0.00    -0.246 OA
ATOM     11  OD1 ASP A   1     -26.819  21.896 -35.317  0.00  0.00    -0.246 OA
ENDBRANCH   8   9
ENDBRANCH   5   8
ENDBRANCH   1   5
BRANCH   2  12
ATOM     12  CA  ASP A   2     -29.547  17.014 -34.181  0.00  0.00    +0.148 C 
BRANCH  12  13
ATOM     13  C   ASP A   2     -30.674  16.044 -34.561  0.00  0.00    +0.227 C 
ATOM     14  O   ASP A   2     -30.522  14.831 -34.412  0.00  0.00    -0.286 OA
ENDBRANCH  12  13
BRANCH  12  15
ATOM     15  CB  ASP A   2     -28.807  16.474 -32.949  0.00  0.00    +0.142 C 
BRANCH  15  16
ATOM     16  CG  ASP A   2     -27.327  16.844 -32.941  0.00  0.00    +0.367 C 
ATOM     17  OD2 ASP A   2     -26.617  16.465 -31.986  0.00  0.00    -0.246 OA
ATOM     18  OD1 ASP A   2     -26.866  17.492 -33.905  0.00  0.00    -0.246 OA
ENDBRANCH  15  16
ENDBRANCH  12  15
ENDBRANCH   2  12
TORSDOF 8
REMARK  Name = ../refined-set-2016/4x8o/4x8o_pocket.pdb
REMARK  358 active torsions:
REMARK  status: ('A' for Active; 'I' for Inactive)
REMARK    1  A    between atoms: _1  and  _3
REMARK    2  A    between atoms: _3  and  _4
REMARK    3  A    between atoms: _3  and  _6
REMARK    4  A    between atoms: _6  and  _7
REMARK    5  A    between atoms: _10  and  _12
REMARK    6  A    between atoms: _12  and  _13
REMARK    7  A    between atoms: _12  and  _15
REMARK    8  A    between atoms: _15  and  _16
REMARK    9  A    between atoms: _19  and  _21
REMARK   10  A    between atoms: _21  and  _22
REMARK   11  A    between atoms: _24  and  _26
REMARK   12  A    between atoms: _26  and  _27
REMARK   13  A    between atoms: _31  and  _32
REMARK   14  A    between atoms: _37  and  _39
REMARK   15  A    between atoms: _39  and  _40
REMARK   16  A    between atoms: _42  and  _44
REMARK   17  A    between atoms: _44  and  _45
REMARK   18  A    between atoms: _48  and  _50
REMARK   19  A    between atoms: _50  and  _51
REMARK   20  A    between atoms: _53  and  _55
REMARK   21  A    between atoms: _55  and  _56
REMARK   22  A    between atoms: _55  and  _58
REMARK   23  A    between atoms: _58  and  _59
REMARK   24  A    between atoms: _59  and  _60
REMARK   25  A    between atoms: _60  and  _61
REMARK   26  A    between atoms: _61  and  _62
REMARK   27  A    between atoms: _66  and  _68
REMARK   28  A    between atoms: _68  and  _69
REMARK   29  A    between atoms: _71  and  _73
REMARK   30  A    between atoms: _73  and  _74
REMARK   31  A    between atoms: _73  and  _76
REMARK   32  A    between atoms: _76  and  _77
REMARK   33  A    between atoms: _80  and  _82
REMARK   34  A    between atoms: _82  and  _83
REMARK   35  A    between atoms: _82  and  _85
REMARK   36  A    between atoms: _85  and  _86
REMARK   37  A    between atoms: _86  and  _87
REMARK   38  A    between atoms: _92  and  _94
REMARK   39  A    between atoms: _94  and  _95
REMARK   40  A    between atoms: _98  and  _100
REMARK   41  A    between atoms: _100  and  _101
REMARK   42  A    between atoms: _100  and  _103
REMARK   43  A    between atoms: _103  and  _104
REMARK   44  A    between atoms: _104  and  _105
REMARK   45  A    between atoms: _110  and  _112
REMARK   46  A    between atoms: _112  and  _113
REMARK   47  A    between atoms: _112  and  _115
REMARK   48  A    between atoms: _115  and  _116
REMARK   49  A    between atoms: _122  and  _124
REMARK   50  A    between atoms: _124  and  _125
REMARK   51  A    between atoms: _124  and  _127
REMARK   52  A    between atoms: _127  and  _128
REMARK   53  A    between atoms: _128  and  _129
REMARK   54  A    between atoms: _134  and  _136
REMARK   55  A    between atoms: _136  and  _137
REMARK   56  A    between atoms: _136  and  _139
REMARK   57  A    between atoms: _139  and  _140
REMARK   58  A    between atoms: _142  and  _144
REMARK   59  A    between atoms: _144  and  _145
REMARK   60  A    between atoms: _144  and  _147
REMARK   61  A    between atoms: _147  and  _148
REMARK   62  A    between atoms: _151  and  _153
REMARK   63  A    between atoms: _153  and  _154
REMARK   64  A    between atoms: _156  and  _158
REMARK   65  A    between atoms: _158  and  _159
REMARK   66  A    between atoms: _158  and  _161
REMARK   67  A    between atoms: _161  and  _162
REMARK   68  A    between atoms: _165  and  _167
REMARK   69  A    between atoms: _167  and  _168
REMARK   70  A    between atoms: _167  and  _170
REMARK   71  A    between atoms: _170  and  _171
REMARK   72  A    between atoms: _171  and  _172
REMARK   73  A    between atoms: _174  and  _176
REMARK   74  A    between atoms: _176  and  _177
REMARK   75  A    between atoms: _176  and  _179
REMARK   76  A    between atoms: _179  and  _180
REMARK   77  A    between atoms: _183  and  _185
REMARK   78  A    between atoms: _185  and  _186
REMARK   79  A    between atoms: _185  and  _188
REMARK   80  A    between atoms: _188  and  _189
REMARK   81  A    between atoms: _189  and  _190
REMARK   82  A    between atoms: _190  and  _191
REMARK   83  A    between atoms: _200  and  _202
REMARK   84  A    between atoms: _202  and  _203
REMARK   85  A    between atoms: _206  and  _208
REMARK   86  A    between atoms: _208  and  _209
REMARK   87  A    between atoms: _208  and  _211
REMARK   88  A    between atoms: _211  and  _212
REMARK   89  A    between atoms: _212  and  _213
REMARK   90  A    between atoms: _213  and  _214
REMARK   91  A    between atoms: _214  and  _215
REMARK   92  A    between atoms: _219  and  _221
REMARK   93  A    between atoms: _221  and  _222
REMARK   94  A    between atoms: _221  and  _224
REMARK   95  A    between atoms: _224  and  _225
REMARK   96  A    between atoms: _228  and  _230
REMARK   97  A    between atoms: _230  and  _231
REMARK   98  A    between atoms: _230  and  _233
REMARK   99  A    between atoms: _233  and  _234
REMARK  100  A    between atoms: _237  and  _239
REMARK  101  A    between atoms: _239  and  _240
REMARK  102  A    between atoms: _239  and  _242
REMARK  103  A    between atoms: _242  and  _243
REMARK  104  A    between atoms: _243  and  _244
REMARK  105  A    between atoms: _246  and  _248
REMARK  106  A    between atoms: _248  and  _249
REMARK  107  A    between atoms: _248  and  _251
REMARK  108  A    between atoms: _251  and  _252
REMARK  109  A    between atoms: _255  and  _257
REMARK  110  A    between atoms: _257  and  _258
REMARK  111  A    between atoms: _261  and  _263
REMARK  112  A    between atoms: _263  and  _264
REMARK  113  A    between atoms: _266  and  _268
REMARK  114  A    between atoms: _268  and  _269
REMARK  115  A    between atoms: _268  and  _271
REMARK  116  A    between atoms: _271  and  _272
REMARK  117  A    between atoms: _272  and  _273
REMARK  118  A    between atoms: _273  and  _274
REMARK  119  A    between atoms: _274  and  _275
REMARK  120  A    between atoms: _279  and  _281
REMARK  121  A    between atoms: _281  and  _282
REMARK  122  A    between atoms: _281  and  _284
REMARK  123  A    between atoms: _284  and  _285
REMARK  124  A    between atoms: _288  and  _290
REMARK  125  A    between atoms: _290  and  _291
REMARK  126  A    between atoms: _290  and  _293
REMARK  127  A    between atoms: _296  and  _298
REMARK  128  A    between atoms: _298  and  _299
REMARK  129  A    between atoms: _298  and  _301
REMARK  130  A    between atoms: _301  and  _302
REMARK  131  A    between atoms: _305  and  _307
REMARK  132  A    between atoms: _307  and  _308
REMARK  133  A    between atoms: _307  and  _310
REMARK  134  A    between atoms: _310  and  _311
REMARK  135  A    between atoms: _314  and  _316
REMARK  136  A    between atoms: _316  and  _317
REMARK  137  A    between atoms: _316  and  _319
REMARK  138  A    between atoms: _319  and  _320
REMARK  139  A    between atoms: _320  and  _321
REMARK  140  A    between atoms: _324  and  _326
REMARK  141  A    between atoms: _326  and  _327
REMARK  142  A    between atoms: _326  and  _329
REMARK  143  A    between atoms: _329  and  _330
REMARK  144  A    between atoms: _333  and  _335
REMARK  145  A    between atoms: _335  and  _336
REMARK  146  A    between atoms: _335  and  _338
REMARK  147  A    between atoms: _341  and  _343
REMARK  148  A    between atoms: _343  and  _344
REMARK  149  A    between atoms: _343  and  _346
REMARK  150  A    between atoms: _346  and  _347
REMARK  151  A    between atoms: _350  and  _352
REMARK  152  A    between atoms: _352  and  _353
REMARK  153  A    between atoms: _352  and  _355
REMARK  154  A    between atoms: _358  and  _360
REMARK  155  A    between atoms: _360  and  _361
REMARK  156  A    between atoms: _360  and  _363
REMARK  157  A    between atoms: _363  and  _364
REMARK  158  A    between atoms: _367  and  _369
REMARK  159  A    between atoms: _369  and  _370
REMARK  160  A    between atoms: _372  and  _374
REMARK  161  A    between atoms: _374  and  _375
REMARK  162  A    between atoms: _374  and  _377
REMARK  163  A    between atoms: _377  and  _378
REMARK  164  A    between atoms: _385  and  _386
REMARK  165  A    between atoms: _391  and  _393
REMARK  166  A    between atoms: _393  and  _394
REMARK  167  A    between atoms: _393  and  _396
REMARK  168  A    between atoms: _396  and  _397
REMARK  169  A    between atoms: _397  and  _398
REMARK  170  A    between atoms: _398  and  _399
REMARK  171  A    between atoms: _408  and  _410
REMARK  172  A    between atoms: _410  and  _411
REMARK  173  A    between atoms: _410  and  _413
REMARK  174  A    between atoms: _413  and  _414
REMARK  175  A    between atoms: _417  and  _419
REMARK  176  A    between atoms: _419  and  _420
REMARK  177  A    between atoms: _419  and  _422
REMARK  178  A    between atoms: _422  and  _423
REMARK  179  A    between atoms: _423  and  _424
REMARK  180  A    between atoms: _429  and  _431
REMARK  181  A    between atoms: _431  and  _432
REMARK  182  A    between atoms: _431  and  _434
REMARK  183  A    between atoms: _434  and  _435
REMARK  184  A    between atoms: _441  and  _443
REMARK  185  A    between atoms: _443  and  _444
REMARK  186  A    between atoms: _443  and  _446
REMARK  187  A    between atoms: _449  and  _451
REMARK  188  A    between atoms: _451  and  _452
REMARK  189  A    between atoms: _451  and  _454
REMARK  190  A    between atoms: _454  and  _455
REMARK  191  A    between atoms: _458  and  _460
REMARK  192  A    between atoms: _460  and  _461
REMARK  193  A    between atoms: _460  and  _463
REMARK  194  A    between atoms: _463  and  _464
REMARK  195  A    between atoms: _467  and  _469
REMARK  196  A    between atoms: _469  and  _470
REMARK  197  A    between atoms: _469  and  _472
REMARK  198  A    between atoms: _475  and  _477
REMARK  199  A    between atoms: _477  and  _478
REMARK  200  A    between atoms: _477  and  _480
REMARK  201  A    between atoms: _480  and  _481
REMARK  202  A    between atoms: _484  and  _486
REMARK  203  A    between atoms: _486  and  _487
REMARK  204  A    between atoms: _486  and  _489
REMARK  205  A    between atoms: _489  and  _490
REMARK  206  A    between atoms: _490  and  _491
REMARK  207  A    between atoms: _491  and  _492
REMARK  208  A    between atoms: _501  and  _503
REMARK  209  A    between atoms: _503  and  _504
REMARK  210  A    between atoms: _503  and  _506
REMARK  211  A    between atoms: _506  and  _507
REMARK  212  A    between atoms: _510  and  _512
REMARK  213  A    between atoms: _512  and  _513
REMARK  214  A    between atoms: _512  and  _515
REMARK  215  A    between atoms: _518  and  _520
REMARK  216  A    between atoms: _520  and  _521
REMARK  217  A    between atoms: _523  and  _525
REMARK  218  A    between atoms: _525  and  _526
REMARK  219  A    between atoms: _525  and  _528
REMARK  220  A    between atoms: _528  and  _529
REMARK  221  A    between atoms: _529  and  _530
REMARK  222  A    between atoms: _530  and  _531
REMARK  223  A    between atoms: _540  and  _542
REMARK  224  A    between atoms: _542  and  _543
REMARK  225  A    between atoms: _542  and  _545
REMARK  226  A    between atoms: _545  and  _546
REMARK  227  A    between atoms: _546  and  _547
REMARK  228  A    between atoms: _547  and  _548
REMARK  229  A    between atoms: _557  and  _559
REMARK  230  A    between atoms: _559  and  _560
REMARK  231  A    between atoms: _559  and  _562
REMARK  232  A    between atoms: _565  and  _567
REMARK  233  A    between atoms: _567  and  _568
REMARK  234  A    between atoms: _570  and  _572
REMARK  235  A    between atoms: _572  and  _573
REMARK  236  A    between atoms: _572  and  _575
REMARK  237  A    between atoms: _575  and  _576
REMARK  238  A    between atoms: _576  and  _577
REMARK  239  A    between atoms: _577  and  _578
REMARK  240  A    between atoms: _587  and  _589
REMARK  241  A    between atoms: _589  and  _590
REMARK  242  A    between atoms: _589  and  _592
REMARK  243  A    between atoms: _595  and  _597
REMARK  244  A    between atoms: _597  and  _598
REMARK  245  A    between atoms: _597  and  _600
REMARK  246  A    between atoms: _600  and  _601
REMARK  247  A    between atoms: _606  and  _607
REMARK  248  A    between atoms: _609  and  _611
REMARK  249  A    between atoms: _611  and  _612
REMARK  250  A    between atoms: _611  and  _614
REMARK  251  A    between atoms: _614  and  _615
REMARK  252  A    between atoms: _620  and  _622
REMARK  253  A    between atoms: _622  and  _623
REMARK  254  A    between atoms: _622  and  _625
REMARK  255  A    between atoms: _628  and  _630
REMARK  256  A    between atoms: _630  and  _631
REMARK  257  A    between atoms: _630  and  _633
REMARK  258  A    between atoms: _633  and  _634
REMARK  259  A    between atoms: _634  and  _635
REMARK  260  A    between atoms: _635  and  _636
REMARK  261  A    between atoms: _636  and  _637
REMARK  262  A    between atoms: _641  and  _643
REMARK  263  A    between atoms: _643  and  _644
REMARK  264  A    between atoms: _643  and  _646
REMARK  265  A    between atoms: _646  and  _647
REMARK  266  A    between atoms: _653  and  _655
REMARK  267  A    between atoms: _655  and  _656
REMARK  268  A    between atoms: _655  and  _658
REMARK  269  A    between atoms: _658  and  _659
REMARK  270  A    between atoms: _665  and  _666
REMARK  271  A    between atoms: _671  and  _673
REMARK  272  A    between atoms: _673  and  _674
REMARK  273  A    between atoms: _673  and  _676
REMARK  274  A    between atoms: _676  and  _677
REMARK  275  A    between atoms: _677  and  _678
REMARK  276  A    between atoms: _678  and  _679
REMARK  277  A    between atoms: _688  and  _690
REMARK  278  A    between atoms: _690  and  _691
REMARK  279  A    between atoms: _690  and  _693
REMARK  280  A    between atoms: _693  and  _694
REMARK  281  A    between atoms: _697  and  _699
REMARK  282  A    between atoms: _699  and  _700
REMARK  283  A    between atoms: _699  and  _702
REMARK  284  A    between atoms: _702  and  _703
REMARK  285  A    between atoms: _706  and  _708
REMARK  286  A    between atoms: _708  and  _709
REMARK  287  A    between atoms: _708  and  _711
REMARK  288  A    between atoms: _711  and  _712
REMARK  289  A    between atoms: _715  and  _717
REMARK  290  A    between atoms: _717  and  _718
REMARK  291  A    between atoms: _717  and  _720
REMARK  292  A    between atoms: _723  and  _725
REMARK  293  A    between atoms: _725  and  _726
REMARK  294  A    between atoms: _725  and  _728
REMARK  295  A    between atoms: _728  and  _729
REMARK  296  A    between atoms: _729  and  _730
REMARK  297  A    between atoms: _730  and  _731
REMARK  298  A    between atoms: _731  and  _732
REMARK  299  A    between atoms: _736  and  _738
REMARK  300  A    between atoms: _738  and  _739
REMARK  301  A    between atoms: _738  and  _741
REMARK  302  A    between atoms: _741  and  _742
REMARK  303  A    between atoms: _742  and  _743
REMARK  304  A    between atoms: _743  and  _744
REMARK  305  A    between atoms: _753  and  _755
REMARK  306  A    between atoms: _755  and  _756
REMARK  307  A    between atoms: _755  and  _758
REMARK  308  A    between atoms: _758  and  _759
REMARK  309  A    between atoms: _762  and  _764
REMARK  310  A    between atoms: _764  and  _765
REMARK  311  A    between atoms: _764  and  _767
REMARK  312  A    between atoms: _767  and  _768
REMARK  313  A    between atoms: _768  and  _769
REMARK  314  A    between atoms: _772  and  _774
REMARK  315  A    between atoms: _774  and  _775
REMARK  316  A    between atoms: _774  and  _777
REMARK  317  A    between atoms: _777  and  _778
REMARK  318  A    between atoms: _788  and  _790
REMARK  319  A    between atoms: _790  and  _791
REMARK  320  A    between atoms: _790  and  _793
REMARK  321  A    between atoms: _793  and  _794
REMARK  322  A    between atoms: _797  and  _799
REMARK  323  A    between atoms: _799  and  _800
REMARK  324  A    between atoms: _799  and  _802
REMARK  325  A    between atoms: _802  and  _803
REMARK  326  A    between atoms: _806  and  _808
REMARK  327  A    between atoms: _808  and  _809
REMARK  328  A    between atoms: _811  and  _813
REMARK  329  A    between atoms: _813  and  _814
REMARK  330  A    between atoms: _813  and  _816
REMARK  331  A    between atoms: _816  and  _817
REMARK  332  A    between atoms: _820  and  _822
REMARK  333  A    between atoms: _822  and  _823
REMARK  334  A    between atoms: _822  and  _825
REMARK  335  A    between atoms: _825  and  _826
REMARK  336  A    between atoms: _826  and  _827
REMARK  337  A    between atoms: _827  and  _828
REMARK  338  A    between atoms: _828  and  _829
REMARK  339  A    between atoms: _834  and  _835
REMARK  340  A    between atoms: _840  and  _842
REMARK  341  A    between atoms: _842  and  _843
REMARK  342  A    between atoms: _842  and  _845
REMARK  343  A    between atoms: _848  and  _850
REMARK  344  A    between atoms: _850  and  _851
REMARK  345  A    between atoms: _854  and  _856
REMARK  346  A    between atoms: _856  and  _857
REMARK  347  A    between atoms: _856  and  _859
REMARK  348  A    between atoms: _859  and  _860
REMARK  349  A    between atoms: _860  and  _861
REMARK  350  A    between atoms: _864  and  _866
REMARK  351  A    between atoms: _866  and  _867
REMARK  352  A    between atoms: _866  and  _869
REMARK  353  A    between atoms: _872  and  _874
REMARK  354  A    between atoms: _874  and  _875
REMARK  355  A    between atoms: _874  and  _877
REMARK  356  A    between atoms: _877  and  _878
REMARK  357  A    between atoms: _878  and  _879
REMARK  358  A    between atoms: _879  and  _880
REMARK                            x       y       z     vdW  Elec       q    Type
REMARK                         _______ _______ _______ _____ _____    ______ ____
ROOT
ATOM      1  C   THR A   1     -30.316  18.332 -40.383  0.00  0.00    +0.241 C 
ATOM      2  N   VAL A   2     -30.037  17.096 -39.976  0.00  0.00    -0.298 N 
ATOM      3  H   VAL A   2     -30.721  16.601 -39.369  0.00  0.00    +0.150 HD
ATOM      4  O   THR A   1     -29.543  19.003 -41.069  0.00  0.00    -0.274 OA
ENDROOT
BRANCH   1   5
ATOM      5  CA  THR A   1     -31.679  18.890 -39.962  0.00  0.00    +0.172 C 
BRANCH   5   6
ATOM      6  N   THR A   1     -32.700  17.846 -40.021  0.00  0.00    -0.236 NA
ATOM      7  H   THR A   1     -33.102  17.474 -39.137  0.00  0.00    +0.142 HD
ENDBRANCH   5   6
BRANCH   5   8
ATOM      8  CB  THR A   1     -31.578  19.506 -38.549  0.00  0.00    +0.135 C 
ATOM      9  CG2 THR A   1     -30.746  20.779 -38.576  0.00  0.00    +0.034 C 
BRANCH   8  10
ATOM     10  OG1 THR A   1     -32.891  19.815 -38.065  0.00  0.00    -0.383 OA
ATOM     11  HG1 THR A   1     -33.323  20.462 -38.677  0.00  0.00    +0.210 HD
ENDBRANCH   8  10
ENDBRANCH   5   8
ENDBRANCH   1   5
BRANCH   2  12
ATOM     12  CA  VAL A   2     -28.802  16.410 -40.353  0.00  0.00    +0.137 C 
BRANCH  12  13
ATOM     13  CB  VAL A   2     -28.720  15.013 -39.706  0.00  0.00    +0.026 C 
ATOM     14  CG2 VAL A   2     -28.707  15.135 -38.194  0.00  0.00    +0.002 C 
ATOM     15  CG1 VAL A   2     -27.485  14.272 -40.188  0.00  0.00    +0.002 C 
ENDBRANCH  12  13
BRANCH  12  16
ATOM     16  C   VAL A   2     -28.670  16.257 -41.869  0.00  0.00    +0.227 C 
ATOM     17  O   VAL A   2     -27.606  16.500 -42.437  0.00  0.00    -0.286 OA
ENDBRANCH  12  16
ENDBRANCH   2  12
TORSDOF 7
REMARK  Name = ../refined-set-2016/4x8o/4x8o_pocket.pdb
REMARK  358 active torsions:
REMARK  status: ('A' for Active; 'I' for Inactive)
REMARK    1  A    between atoms: _1  and  _3
REMARK    2  A    between atoms: _3  and  _4
REMARK    3  A    between atoms: _3  and  _6
REMARK    4  A    between atoms: _6  and  _7
REMARK    5  A    between atoms: _10  and  _12
REMARK    6  A    between atoms: _12  and  _13
REMARK    7  A    between atoms: _12  and  _15
REMARK    8  A    between atoms: _15  and  _16
REMARK    9  A    between atoms: _19  and  _21
REMARK   10  A    between atoms: _21  and  _22
REMARK   11  A    between atoms: _24  and  _26
REMARK   12  A    between atoms: _26  and  _27
REMARK   13  A    between atoms: _31  and  _32
REMARK   14  A    between atoms: _37  and  _39
REMARK   15  A    between atoms: _39  and  _40
REMARK   16  A    between atoms: _42  and  _44
REMARK   17  A    between atoms: _44  and  _45
REMARK   18  A    between atoms: _48  and  _50
REMARK   19  A    between atoms: _50  and  _51
REMARK   20  A    between atoms: _53  and  _55
REMARK   21  A    between atoms: _55  and  _56
REMARK   22  A    between atoms: _55  and  _58
REMARK   23  A    between atoms: _58  and  _59
REMARK   24  A    between atoms: _59  and  _60
REMARK   25  A    between atoms: _60  and  _61
REMARK   26  A    between atoms: _61  and  _62
REMARK   27  A    between atoms: _66  and  _68
REMARK   28  A    between atoms: _68  and  _69
REMARK   29  A    between atoms: _71  and  _73
REMARK   30  A    between atoms: _73  and  _74
REMARK   31  A    between atoms: _73  and  _76
REMARK   32  A    between atoms: _76  and  _77
REMARK   33  A    between atoms: _80  and  _82
REMARK   34  A    between atoms: _82  and  _83
REMARK   35  A    between atoms: _82  and  _85
REMARK   36  A    between atoms: _85  and  _86
REMARK   37  A    between atoms: _86  and  _87
REMARK   38  A    between atoms: _92  and  _94
REMARK   39  A    between atoms: _94  and  _95
REMARK   40  A    between atoms: _98  and  _100
REMARK   41  A    between atoms: _100  and  _101
REMARK   42  A    between atoms: _100  and  _103
REMARK   43  A    between atoms: _103  and  _104
REMARK   44  A    between atoms: _104  and  _105
REMARK   45  A    between atoms: _110  and  _112
REMARK   46  A    between atoms: _112  and  _113
REMARK   47  A    between atoms: _112  and  _115
REMARK   48  A    between atoms: _115  and  _116
REMARK   49  A    between atoms: _122  and  _124
REMARK   50  A    between atoms: _124  and  _125
REMARK   51  A    between atoms: _124  and  _127
REMARK   52  A    between atoms: _127  and  _128
REMARK   53  A    between atoms: _128  and  _129
REMARK   54  A    between atoms: _134  and  _136
REMARK   55  A    between atoms: _136  and  _137
REMARK   56  A    between atoms: _136  and  _139
REMARK   57  A    between atoms: _139  and  _140
REMARK   58  A    between atoms: _142  and  _144
REMARK   59  A    between atoms: _144  and  _145
REMARK   60  A    between atoms: _144  and  _147
REMARK   61  A    between atoms: _147  and  _148
REMARK   62  A    between atoms: _151  and  _153
REMARK   63  A    between atoms: _153  and  _154
REMARK   64  A    between atoms: _156  and  _158
REMARK   65  A    between atoms: _158  and  _159
REMARK   66  A    between atoms: _158  and  _161
REMARK   67  A    between atoms: _161  and  _162
REMARK   68  A    between atoms: _165  and  _167
REMARK   69  A    between atoms: _167  and  _168
REMARK   70  A    between atoms: _167  and  _170
REMARK   71  A    between atoms: _170  and  _171
REMARK   72  A    between atoms: _171  and  _172
REMARK   73  A    between atoms: _174  and  _176
REMARK   74  A    between atoms: _176  and  _177
REMARK   75  A    between atoms: _176  and  _179
REMARK   76  A    between atoms: _179  and  _180
REMARK   77  A    between atoms: _183  and  _185
REMARK   78  A    between atoms: _185  and  _186
REMARK   79  A    between atoms: _185  and  _188
REMARK   80  A    between atoms: _188  and  _189
REMARK   81  A    between atoms: _189  and  _190
REMARK   82  A    between atoms: _190  and  _191
REMARK   83  A    between atoms: _200  and  _202
REMARK   84  A    between atoms: _202  and  _203
REMARK   85  A    between atoms: _206  and  _208
REMARK   86  A    between atoms: _208  and  _209
REMARK   87  A    between atoms: _208  and  _211
REMARK   88  A    between atoms: _211  and  _212
REMARK   89  A    between atoms: _212  and  _213
REMARK   90  A    between atoms: _213  and  _214
REMARK   91  A    between atoms: _214  and  _215
REMARK   92  A    between atoms: _219  and  _221
REMARK   93  A    between atoms: _221  and  _222
REMARK   94  A    between atoms: _221  and  _224
REMARK   95  A    between atoms: _224  and  _225
REMARK   96  A    between atoms: _228  and  _230
REMARK   97  A    between atoms: _230  and  _231
REMARK   98  A    between atoms: _230  and  _233
REMARK   99  A    between atoms: _233  and  _234
REMARK  100  A    between atoms: _237  and  _239
REMARK  101  A    between atoms: _239  and  _240
REMARK  102  A    between atoms: _239  and  _242
REMARK  103  A    between atoms: _242  and  _243
REMARK  104  A    between atoms: _243  and  _244
REMARK  105  A    between atoms: _246  and  _248
REMARK  106  A    between atoms: _248  and  _249
REMARK  107  A    between atoms: _248  and  _251
REMARK  108  A    between atoms: _251  and  _252
REMARK  109  A    between atoms: _255  and  _257
REMARK  110  A    between atoms: _257  and  _258
REMARK  111  A    between atoms: _261  and  _263
REMARK  112  A    between atoms: _263  and  _264
REMARK  113  A    between atoms: _266  and  _268
REMARK  114  A    between atoms: _268  and  _269
REMARK  115  A    between atoms: _268  and  _271
REMARK  116  A    between atoms: _271  and  _272
REMARK  117  A    between atoms: _272  and  _273
REMARK  118  A    between atoms: _273  and  _274
REMARK  119  A    between atoms: _274  and  _275
REMARK  120  A    between atoms: _279  and  _281
REMARK  121  A    between atoms: _281  and  _282
REMARK  122  A    between atoms: _281  and  _284
REMARK  123  A    between atoms: _284  and  _285
REMARK  124  A    between atoms: _288  and  _290
REMARK  125  A    between atoms: _290  and  _291
REMARK  126  A    between atoms: _290  and  _293
REMARK  127  A    between atoms: _296  and  _298
REMARK  128  A    between atoms: _298  and  _299
REMARK  129  A    between atoms: _298  and  _301
REMARK  130  A    between atoms: _301  and  _302
REMARK  131  A    between atoms: _305  and  _307
REMARK  132  A    between atoms: _307  and  _308
REMARK  133  A    between atoms: _307  and  _310
REMARK  134  A    between atoms: _310  and  _311
REMARK  135  A    between atoms: _314  and  _316
REMARK  136  A    between atoms: _316  and  _317
REMARK  137  A    between atoms: _316  and  _319
REMARK  138  A    between atoms: _319  and  _320
REMARK  139  A    between atoms: _320  and  _321
REMARK  140  A    between atoms: _324  and  _326
REMARK  141  A    between atoms: _326  and  _327
REMARK  142  A    between atoms: _326  and  _329
REMARK  143  A    between atoms: _329  and  _330
REMARK  144  A    between atoms: _333  and  _335
REMARK  145  A    between atoms: _335  and  _336
REMARK  146  A    between atoms: _335  and  _338
REMARK  147  A    between atoms: _341  and  _343
REMARK  148  A    between atoms: _343  and  _344
REMARK  149  A    between atoms: _343  and  _346
REMARK  150  A    between atoms: _346  and  _347
REMARK  151  A    between atoms: _350  and  _352
REMARK  152  A    between atoms: _352  and  _353
REMARK  153  A    between atoms: _352  and  _355
REMARK  154  A    between atoms: _358  and  _360
REMARK  155  A    between atoms: _360  and  _361
REMARK  156  A    between atoms: _360  and  _363
REMARK  157  A    between atoms: _363  and  _364
REMARK  158  A    between atoms: _367  and  _369
REMARK  159  A    between atoms: _369  and  _370
REMARK  160  A    between atoms: _372  and  _374
REMARK  161  A    between atoms: _374  and  _375
REMARK  162  A    between atoms: _374  and  _377
REMARK  163  A    between atoms: _377  and  _378
REMARK  164  A    between atoms: _385  and  _386
REMARK  165  A    between atoms: _391  and  _393
REMARK  166  A    between atoms: _393  and  _394
REMARK  167  A    between atoms: _393  and  _396
REMARK  168  A    between atoms: _396  and  _397
REMARK  169  A    between atoms: _397  and  _398
REMARK  170  A    between atoms: _398  and  _399
REMARK  171  A    between atoms: _408  and  _410
REMARK  172  A    between atoms: _410  and  _411
REMARK  173  A    between atoms: _410  and  _413
REMARK  174  A    between atoms: _413  and  _414
REMARK  175  A    between atoms: _417  and  _419
REMARK  176  A    between atoms: _419  and  _420
REMARK  177  A    between atoms: _419  and  _422
REMARK  178  A    between atoms: _422  and  _423
REMARK  179  A    between atoms: _423  and  _424
REMARK  180  A    between atoms: _429  and  _431
REMARK  181  A    between atoms: _431  and  _432
REMARK  182  A    between atoms: _431  and  _434
REMARK  183  A    between atoms: _434  and  _435
REMARK  184  A    between atoms: _441  and  _443
REMARK  185  A    between atoms: _443  and  _444
REMARK  186  A    between atoms: _443  and  _446
REMARK  187  A    between atoms: _449  and  _451
REMARK  188  A    between atoms: _451  and  _452
REMARK  189  A    between atoms: _451  and  _454
REMARK  190  A    between atoms: _454  and  _455
REMARK  191  A    between atoms: _458  and  _460
REMARK  192  A    between atoms: _460  and  _461
REMARK  193  A    between atoms: _460  and  _463
REMARK  194  A    between atoms: _463  and  _464
REMARK  195  A    between atoms: _467  and  _469
REMARK  196  A    between atoms: _469  and  _470
REMARK  197  A    between atoms: _469  and  _472
REMARK  198  A    between atoms: _475  and  _477
REMARK  199  A    between atoms: _477  and  _478
REMARK  200  A    between atoms: _477  and  _480
REMARK  201  A    between atoms: _480  and  _481
REMARK  202  A    between atoms: _484  and  _486
REMARK  203  A    between atoms: _486  and  _487
REMARK  204  A    between atoms: _486  and  _489
REMARK  205  A    between atoms: _489  and  _490
REMARK  206  A    between atoms: _490  and  _491
REMARK  207  A    between atoms: _491  and  _492
REMARK  208  A    between atoms: _501  and  _503
REMARK  209  A    between atoms: _503  and  _504
REMARK  210  A    between atoms: _503  and  _506
REMARK  211  A    between atoms: _506  and  _507
REMARK  212  A    between atoms: _510  and  _512
REMARK  213  A    between atoms: _512  and  _513
REMARK  214  A    between atoms: _512  and  _515
REMARK  215  A    between atoms: _518  and  _520
REMARK  216  A    between atoms: _520  and  _521
REMARK  217  A    between atoms: _523  and  _525
REMARK  218  A    between atoms: _525  and  _526
REMARK  219  A    between atoms: _525  and  _528
REMARK  220  A    between atoms: _528  and  _529
REMARK  221  A    between atoms: _529  and  _530
REMARK  222  A    between atoms: _530  and  _531
REMARK  223  A    between atoms: _540  and  _542
REMARK  224  A    between atoms: _542  and  _543
REMARK  225  A    between atoms: _542  and  _545
REMARK  226  A    between atoms: _545  and  _546
REMARK  227  A    between atoms: _546  and  _547
REMARK  228  A    between atoms: _547  and  _548
REMARK  229  A    between atoms: _557  and  _559
REMARK  230  A    between atoms: _559  and  _560
REMARK  231  A    between atoms: _559  and  _562
REMARK  232  A    between atoms: _565  and  _567
REMARK  233  A    between atoms: _567  and  _568
REMARK  234  A    between atoms: _570  and  _572
REMARK  235  A    between atoms: _572  and  _573
REMARK  236  A    between atoms: _572  and  _575
REMARK  237  A    between atoms: _575  and  _576
REMARK  238  A    between atoms: _576  and  _577
REMARK  239  A    between atoms: _577  and  _578
REMARK  240  A    between atoms: _587  and  _589
REMARK  241  A    between atoms: _589  and  _590
REMARK  242  A    between atoms: _589  and  _592
REMARK  243  A    between atoms: _595  and  _597
REMARK  244  A    between atoms: _597  and  _598
REMARK  245  A    between atoms: _597  and  _600
REMARK  246  A    between atoms: _600  and  _601
REMARK  247  A    between atoms: _606  and  _607
REMARK  248  A    between atoms: _609  and  _611
REMARK  249  A    between atoms: _611  and  _612
REMARK  250  A    between atoms: _611  and  _614
REMARK  251  A    between atoms: _614  and  _615
REMARK  252  A    between atoms: _620  and  _622
REMARK  253  A    between atoms: _622  and  _623
REMARK  254  A    between atoms: _622  and  _625
REMARK  255  A    between atoms: _628  and  _630
REMARK  256  A    between atoms: _630  and  _631
REMARK  257  A    between atoms: _630  and  _633
REMARK  258  A    between atoms: _633  and  _634
REMARK  259  A    between atoms: _634  and  _635
REMARK  260  A    between atoms: _635  and  _636
REMARK  261  A    between atoms: _636  and  _637
REMARK  262  A    between atoms: _641  and  _643
REMARK  263  A    between atoms: _643  and  _644
REMARK  264  A    between atoms: _643  and  _646
REMARK  265  A    between atoms: _646  and  _647
REMARK  266  A    between atoms: _653  and  _655
REMARK  267  A    between atoms: _655  and  _656
REMARK  268  A    between atoms: _655  and  _658
REMARK  269  A    between atoms: _658  and  _659
REMARK  270  A    between atoms: _665  and  _666
REMARK  271  A    between atoms: _671  and  _673
REMARK  272  A    between atoms: _673  and  _674
REMARK  273  A    between atoms: _673  and  _676
REMARK  274  A    between atoms: _676  and  _677
REMARK  275  A    between atoms: _677  and  _678
REMARK  276  A    between atoms: _678  and  _679
REMARK  277  A    between atoms: _688  and  _690
REMARK  278  A    between atoms: _690  and  _691
REMARK  279  A    between atoms: _690  and  _693
REMARK  280  A    between atoms: _693  and  _694
REMARK  281  A    between atoms: _697  and  _699
REMARK  282  A    between atoms: _699  and  _700
REMARK  283  A    between atoms: _699  and  _702
REMARK  284  A    between atoms: _702  and  _703
REMARK  285  A    between atoms: _706  and  _708
REMARK  286  A    between atoms: _708  and  _709
REMARK  287  A    between atoms: _708  and  _711
REMARK  288  A    between atoms: _711  and  _712
REMARK  289  A    between atoms: _715  and  _717
REMARK  290  A    between atoms: _717  and  _718
REMARK  291  A    between atoms: _717  and  _720
REMARK  292  A    between atoms: _723  and  _725
REMARK  293  A    between atoms: _725  and  _726
REMARK  294  A    between atoms: _725  and  _728
REMARK  295  A    between atoms: _728  and  _729
REMARK  296  A    between atoms: _729  and  _730
REMARK  297  A    between atoms: _730  and  _731
REMARK  298  A    between atoms: _731  and  _732
REMARK  299  A    between atoms: _736  and  _738
REMARK  300  A    between atoms: _738  and  _739
REMARK  301  A    between atoms: _738  and  _741
REMARK  302  A    between atoms: _741  and  _742
REMARK  303  A    between atoms: _742  and  _743
REMARK  304  A    between atoms: _743  and  _744
REMARK  305  A    between atoms: _753  and  _755
REMARK  306  A    between atoms: _755  and  _756
REMARK  307  A    between atoms: _755  and  _758
REMARK  308  A    between atoms: _758  and  _759
REMARK  309  A    between atoms: _762  and  _764
REMARK  310  A    between atoms: _764  and  _765
REMARK  311  A    between atoms: _764  and  _767
REMARK  312  A    between atoms: _767  and  _768
REMARK  313  A    between atoms: _768  and  _769
REMARK  314  A    between atoms: _772  and  _774
REMARK  315  A    between atoms: _774  and  _775
REMARK  316  A    between atoms: _774  and  _777
REMARK  317  A    between atoms: _777  and  _778
REMARK  318  A    between atoms: _788  and  _790
REMARK  319  A    between atoms: _790  and  _791
REMARK  320  A    between atoms: _790  and  _793
REMARK  321  A    between atoms: _793  and  _794
REMARK  322  A    between atoms: _797  and  _799
REMARK  323  A    between atoms: _799  and  _800
REMARK  324  A    between atoms: _799  and  _802
REMARK  325  A    between atoms: _802  and  _803
REMARK  326  A    between atoms: _806  and  _808
REMARK  327  A    between atoms: _808  and  _809
REMARK  328  A    between atoms: _811  and  _813
REMARK  329  A    between atoms: _813  and  _814
REMARK  330  A    between atoms: _813  and  _816
REMARK  331  A    between atoms: _816  and  _817
REMARK  332  A    between atoms: _820  and  _822
REMARK  333  A    between atoms: _822  and  _823
REMARK  334  A    between atoms: _822  and  _825
REMARK  335  A    between atoms: _825  and  _826
REMARK  336  A    between atoms: _826  and  _827
REMARK  337  A    between atoms: _827  and  _828
REMARK  338  A    between atoms: _828  and  _829
REMARK  339  A    between atoms: _834  and  _835
REMARK  340  A    between atoms: _840  and  _842
REMARK  341  A    between atoms: _842  and  _843
REMARK  342  A    between atoms: _842  and  _845
REMARK  343  A    between atoms: _848  and  _850
REMARK  344  A    between atoms: _850  and  _851
REMARK  345  A    between atoms: _854  and  _856
REMARK  346  A    between atoms: _856  and  _857
REMARK  347  A    between atoms: _856  and  _859
REMARK  348  A    between atoms: _859  and  _860
REMARK  349  A    between atoms: _860  and  _861
REMARK  350  A    between atoms: _864  and  _866
REMARK  351  A    between atoms: _866  and  _867
REMARK  352  A    between atoms: _866  and  _869
REMARK  353  A    between atoms: _872  and  _874
REMARK  354  A    between atoms: _874  and  _875
REMARK  355  A    between atoms: _874  and  _877
REMARK  356  A    between atoms: _877  and  _878
REMARK  357  A    between atoms: _878  and  _879
REMARK  358  A    between atoms: _879  and  _880
REMARK                            x       y       z     vdW  Elec       q    Type
REMARK                         _______ _______ _______ _____ _____    ______ ____
ROOT
ATOM      1  CA  ARG A   2     -26.200  19.827 -43.121  0.00  0.00    +0.149 C 
ENDROOT
BRANCH   1   2
ATOM      2  C   ARG A   2     -25.326  19.010 -44.068  0.00  0.00    +0.241 C 
ATOM      3  N   LEU A   3     -25.772  17.796 -44.367  0.00  0.00    -0.298 N 
ATOM      4  H   LEU A   3     -26.672  17.473 -43.957  0.00  0.00    +0.150 HD
ATOM      5  O   ARG A   2     -24.276  19.468 -44.515  0.00  0.00    -0.273 OA
BRANCH   3   6
ATOM      6  CA  LEU A   3     -25.038  16.903 -45.252  0.00  0.00    +0.137 C 
BRANCH   6   7
ATOM      7  C   LEU A   3     -24.999  17.461 -46.673  0.00  0.00    +0.227 C 
ATOM      8  O   LEU A   3     -23.967  17.404 -47.344  0.00  0.00    -0.286 OA
ENDBRANCH   6   7
BRANCH   6   9
ATOM      9  CB  LEU A   3     -25.664  15.509 -45.230  0.00  0.00    +0.028 C 
BRANCH   9  10
ATOM     10  CG  LEU A   3     -24.883  14.383 -45.904  0.00  0.00    +0.002 C 
ATOM     11  CD2 LEU A   3     -25.459  13.036 -45.497  0.00  0.00    +0.000 C 
ATOM     12  CD1 LEU A   3     -23.410  14.467 -45.541  0.00  0.00    +0.000 C 
ENDBRANCH   9  10
ENDBRANCH   6   9
ENDBRANCH   3   6
ENDBRANCH   1   2
BRANCH   1  14
ATOM     13  C   LYS A   1     -28.191  19.840 -44.513  0.00  0.00    +0.238 C 
ATOM     14  N   ARG A   2     -27.612  19.535 -43.354  0.00  0.00    -0.297 N 
ATOM     15  H   ARG A   2     -28.173  19.083 -42.604  0.00  0.00    +0.150 HD
ATOM     16  O   LYS A   1     -27.601  20.440 -45.411  0.00  0.00    -0.274 OA
BRANCH  13  17
ATOM     17  CA  LYS A   1     -29.645  19.410 -44.704  0.00  0.00    +0.145 C 
BRANCH  17  18
ATOM     18  N   LYS A   1     -29.917  18.104 -44.112  0.00  0.00    -0.238 NA
ATOM     19  H   LYS A   1     -30.463  18.043 -43.229  0.00  0.00    +0.142 HD
ENDBRANCH  17  18
BRANCH  17  20
ATOM     20  CB  LYS A   1     -30.592  20.468 -44.132  0.00  0.00    +0.026 C 
BRANCH  20  21
ATOM     21  CG  LYS A   1     -32.007  20.355 -44.680  0.00  0.00    -0.000 C 
BRANCH  21  22
ATOM     22  CD  LYS A   1     -32.894  21.496 -44.223  0.00  0.00    -0.024 C 
BRANCH  22  23
ATOM     23  CE  LYS A   1     -33.630  21.149 -42.940  0.00  0.00    -0.086 C 
BRANCH  23  24
ATOM     24  NZ  LYS A   1     -34.730  22.116 -42.663  0.00  0.00    +0.380 N 
ATOM     25  HZ1 LYS A   1     -35.211  21.849 -41.780  0.00  0.00    -0.089 HD
ATOM     26  HZ2 LYS A   1     -34.333  23.073 -42.567  0.00  0.00    -0.089 HD
ATOM     27  HZ3 LYS A   1     -35.411  22.099 -43.449  0.00  0.00    -0.089 HD
ENDBRANCH  23  24
ENDBRANCH  22  23
ENDBRANCH  21  22
ENDBRANCH  20  21
ENDBRANCH  17  20
ENDBRANCH  13  17
ENDBRANCH   1  14
BRANCH   1  28
ATOM     28  CB  ARG A   2     -25.807  19.537 -41.670  0.00  0.00    +0.033 C 
BRANCH  28  29
ATOM     29  CG  ARG A   2     -26.452  20.455 -40.655  0.00  0.00    +0.045 C 
BRANCH  29  30
ATOM     30  CD  ARG A   2     -25.553  20.671 -39.440  0.00  0.00    +0.174 C 
BRANCH  30  31
ATOM     31  NE  ARG A   2     -25.455  19.500 -38.567  0.00  0.00    -0.265 N 
ATOM     32  CZ  ARG A   2     -26.417  19.099 -37.739  0.00  0.00    +0.342 C 
ATOM     33  NH2 ARG A   2     -26.237  18.031 -36.970  0.00  0.00    -0.292 N 
ATOM     34 HH21 ARG A   2     -26.992  17.722 -36.325  0.00  0.00    +0.255 HD
ATOM     35 HH22 ARG A   2     -25.341  17.504 -37.013  0.00  0.00    +0.255 HD
ATOM     36  NH1 ARG A   2     -27.566  19.758 -37.684  0.00  0.00    -0.292 N 
ATOM     37 HH11 ARG A   2     -28.316  19.443 -37.036  0.00  0.00    +0.255 HD
ATOM     38 HH12 ARG A   2     -27.717  20.590 -38.289  0.00  0.00    +0.255 HD
ATOM     39  HE  ARG A   2     -24.576  18.945 -38.596  0.00  0.00    +0.259 HD
ENDBRANCH  30  31
ENDBRANCH  29  30
ENDBRANCH  28  29
ENDBRANCH   1  28
TORSDOF 17
REMARK  Name = ../refined-set-2016/4x8o/4x8o_pocket.pdb
REMARK  358 active torsions:
REMARK  status: ('A' for Active; 'I' for Inactive)
REMARK    1  A    between atoms: _1  and  _3
REMARK    2  A    between atoms: _3  and  _4
REMARK    3  A    between atoms: _3  and  _6
REMARK    4  A    between atoms: _6  and  _7
REMARK    5  A    between atoms: _10  and  _12
REMARK    6  A    between atoms: _12  and  _13
REMARK    7  A    between atoms: _12  and  _15
REMARK    8  A    between atoms: _15  and  _16
REMARK    9  A    between atoms: _19  and  _21
REMARK   10  A    between atoms: _21  and  _22
REMARK   11  A    between atoms: _24  and  _26
REMARK   12  A    between atoms: _26  and  _27
REMARK   13  A    between atoms: _31  and  _32
REMARK   14  A    between atoms: _37  and  _39
REMARK   15  A    between atoms: _39  and  _40
REMARK   16  A    between atoms: _42  and  _44
REMARK   17  A    between atoms: _44  and  _45
REMARK   18  A    between atoms: _48  and  _50
REMARK   19  A    between atoms: _50  and  _51
REMARK   20  A    between atoms: _53  and  _55
REMARK   21  A    between atoms: _55  and  _56
REMARK   22  A    between atoms: _55  and  _58
REMARK   23  A    between atoms: _58  and  _59
REMARK   24  A    between atoms: _59  and  _60
REMARK   25  A    between atoms: _60  and  _61
REMARK   26  A    between atoms: _61  and  _62
REMARK   27  A    between atoms: _66  and  _68
REMARK   28  A    between atoms: _68  and  _69
REMARK   29  A    between atoms: _71  and  _73
REMARK   30  A    between atoms: _73  and  _74
REMARK   31  A    between atoms: _73  and  _76
REMARK   32  A    between atoms: _76  and  _77
REMARK   33  A    between atoms: _80  and  _82
REMARK   34  A    between atoms: _82  and  _83
REMARK   35  A    between atoms: _82  and  _85
REMARK   36  A    between atoms: _85  and  _86
REMARK   37  A    between atoms: _86  and  _87
REMARK   38  A    between atoms: _92  and  _94
REMARK   39  A    between atoms: _94  and  _95
REMARK   40  A    between atoms: _98  and  _100
REMARK   41  A    between atoms: _100  and  _101
REMARK   42  A    between atoms: _100  and  _103
REMARK   43  A    between atoms: _103  and  _104
REMARK   44  A    between atoms: _104  and  _105
REMARK   45  A    between atoms: _110  and  _112
REMARK   46  A    between atoms: _112  and  _113
REMARK   47  A    between atoms: _112  and  _115
REMARK   48  A    between atoms: _115  and  _116
REMARK   49  A    between atoms: _122  and  _124
REMARK   50  A    between atoms: _124  and  _125
REMARK   51  A    between atoms: _124  and  _127
REMARK   52  A    between atoms: _127  and  _128
REMARK   53  A    between atoms: _128  and  _129
REMARK   54  A    between atoms: _134  and  _136
REMARK   55  A    between atoms: _136  and  _137
REMARK   56  A    between atoms: _136  and  _139
REMARK   57  A    between atoms: _139  and  _140
REMARK   58  A    between atoms: _142  and  _144
REMARK   59  A    between atoms: _144  and  _145
REMARK   60  A    between atoms: _144  and  _147
REMARK   61  A    between atoms: _147  and  _148
REMARK   62  A    between atoms: _151  and  _153
REMARK   63  A    between atoms: _153  and  _154
REMARK   64  A    between atoms: _156  and  _158
REMARK   65  A    between atoms: _158  and  _159
REMARK   66  A    between atoms: _158  and  _161
REMARK   67  A    between atoms: _161  and  _162
REMARK   68  A    between atoms: _165  and  _167
REMARK   69  A    between atoms: _167  and  _168
REMARK   70  A    between atoms: _167  and  _170
REMARK   71  A    between atoms: _170  and  _171
REMARK   72  A    between atoms: _171  and  _172
REMARK   73  A    between atoms: _174  and  _176
REMARK   74  A    between atoms: _176  and  _177
REMARK   75  A    between atoms: _176  and  _179
REMARK   76  A    between atoms: _179  and  _180
REMARK   77  A    between atoms: _183  and  _185
REMARK   78  A    between atoms: _185  and  _186
REMARK   79  A    between atoms: _185  and  _188
REMARK   80  A    between atoms: _188  and  _189
REMARK   81  A    between atoms: _189  and  _190
REMARK   82  A    between atoms: _190  and  _191
REMARK   83  A    between atoms: _200  and  _202
REMARK   84  A    between atoms: _202  and  _203
REMARK   85  A    between atoms: _206  and  _208
REMARK   86  A    between atoms: _208  and  _209
REMARK   87  A    between atoms: _208  and  _211
REMARK   88  A    between atoms: _211  and  _212
REMARK   89  A    between atoms: _212  and  _213
REMARK   90  A    between atoms: _213  and  _214
REMARK   91  A    between atoms: _214  and  _215
REMARK   92  A    between atoms: _219  and  _221
REMARK   93  A    between atoms: _221  and  _222
REMARK   94  A    between atoms: _221  and  _224
REMARK   95  A    between atoms: _224  and  _225
REMARK   96  A    between atoms: _228  and  _230
REMARK   97  A    between atoms: _230  and  _231
REMARK   98  A    between atoms: _230  and  _233
REMARK   99  A    between atoms: _233  and  _234
REMARK  100  A    between atoms: _237  and  _239
REMARK  101  A    between atoms: _239  and  _240
REMARK  102  A    between atoms: _239  and  _242
REMARK  103  A    between atoms: _242  and  _243
REMARK  104  A    between atoms: _243  and  _244
REMARK  105  A    between atoms: _246  and  _248
REMARK  106  A    between atoms: _248  and  _249
REMARK  107  A    between atoms: _248  and  _251
REMARK  108  A    between atoms: _251  and  _252
REMARK  109  A    between atoms: _255  and  _257
REMARK  110  A    between atoms: _257  and  _258
REMARK  111  A    between atoms: _261  and  _263
REMARK  112  A    between atoms: _263  and  _264
REMARK  113  A    between atoms: _266  and  _268
REMARK  114  A    between atoms: _268  and  _269
REMARK  115  A    between atoms: _268  and  _271
REMARK  116  A    between atoms: _271  and  _272
REMARK  117  A    between atoms: _272  and  _273
REMARK  118  A    between atoms: _273  and  _274
REMARK  119  A    between atoms: _274  and  _275
REMARK  120  A    between atoms: _279  and  _281
REMARK  121  A    between atoms: _281  and  _282
REMARK  122  A    between atoms: _281  and  _284
REMARK  123  A    between atoms: _284  and  _285
REMARK  124  A    between atoms: _288  and  _290
REMARK  125  A    between atoms: _290  and  _291
REMARK  126  A    between atoms: _290  and  _293
REMARK  127  A    between atoms: _296  and  _298
REMARK  128  A    between atoms: _298  and  _299
REMARK  129  A    between atoms: _298  and  _301
REMARK  130  A    between atoms: _301  and  _302
REMARK  131  A    between atoms: _305  and  _307
REMARK  132  A    between atoms: _307  and  _308
REMARK  133  A    between atoms: _307  and  _310
REMARK  134  A    between atoms: _310  and  _311
REMARK  135  A    between atoms: _314  and  _316
REMARK  136  A    between atoms: _316  and  _317
REMARK  137  A    between atoms: _316  and  _319
REMARK  138  A    between atoms: _319  and  _320
REMARK  139  A    between atoms: _320  and  _321
REMARK  140  A    between atoms: _324  and  _326
REMARK  141  A    between atoms: _326  and  _327
REMARK  142  A    between atoms: _326  and  _329
REMARK  143  A    between atoms: _329  and  _330
REMARK  144  A    between atoms: _333  and  _335
REMARK  145  A    between atoms: _335  and  _336
REMARK  146  A    between atoms: _335  and  _338
REMARK  147  A    between atoms: _341  and  _343
REMARK  148  A    between atoms: _343  and  _344
REMARK  149  A    between atoms: _343  and  _346
REMARK  150  A    between atoms: _346  and  _347
REMARK  151  A    between atoms: _350  and  _352
REMARK  152  A    between atoms: _352  and  _353
REMARK  153  A    between atoms: _352  and  _355
REMARK  154  A    between atoms: _358  and  _360
REMARK  155  A    between atoms: _360  and  _361
REMARK  156  A    between atoms: _360  and  _363
REMARK  157  A    between atoms: _363  and  _364
REMARK  158  A    between atoms: _367  and  _369
REMARK  159  A    between atoms: _369  and  _370
REMARK  160  A    between atoms: _372  and  _374
REMARK  161  A    between atoms: _374  and  _375
REMARK  162  A    between atoms: _374  and  _377
REMARK  163  A    between atoms: _377  and  _378
REMARK  164  A    between atoms: _385  and  _386
REMARK  165  A    between atoms: _391  and  _393
REMARK  166  A    between atoms: _393  and  _394
REMARK  167  A    between atoms: _393  and  _396
REMARK  168  A    between atoms: _396  and  _397
REMARK  169  A    between atoms: _397  and  _398
REMARK  170  A    between atoms: _398  and  _399
REMARK  171  A    between atoms: _408  and  _410
REMARK  172  A    between atoms: _410  and  _411
REMARK  173  A    between atoms: _410  and  _413
REMARK  174  A    between atoms: _413  and  _414
REMARK  175  A    between atoms: _417  and  _419
REMARK  176  A    between atoms: _419  and  _420
REMARK  177  A    between atoms: _419  and  _422
REMARK  178  A    between atoms: _422  and  _423
REMARK  179  A    between atoms: _423  and  _424
REMARK  180  A    between atoms: _429  and  _431
REMARK  181  A    between atoms: _431  and  _432
REMARK  182  A    between atoms: _431  and  _434
REMARK  183  A    between atoms: _434  and  _435
REMARK  184  A    between atoms: _441  and  _443
REMARK  185  A    between atoms: _443  and  _444
REMARK  186  A    between atoms: _443  and  _446
REMARK  187  A    between atoms: _449  and  _451
REMARK  188  A    between atoms: _451  and  _452
REMARK  189  A    between atoms: _451  and  _454
REMARK  190  A    between atoms: _454  and  _455
REMARK  191  A    between atoms: _458  and  _460
REMARK  192  A    between atoms: _460  and  _461
REMARK  193  A    between atoms: _460  and  _463
REMARK  194  A    between atoms: _463  and  _464
REMARK  195  A    between atoms: _467  and  _469
REMARK  196  A    between atoms: _469  and  _470
REMARK  197  A    between atoms: _469  and  _472
REMARK  198  A    between atoms: _475  and  _477
REMARK  199  A    between atoms: _477  and  _478
REMARK  200  A    between atoms: _477  and  _480
REMARK  201  A    between atoms: _480  and  _481
REMARK  202  A    between atoms: _484  and  _486
REMARK  203  A    between atoms: _486  and  _487
REMARK  204  A    between atoms: _486  and  _489
REMARK  205  A    between atoms: _489  and  _490
REMARK  206  A    between atoms: _490  and  _491
REMARK  207  A    between atoms: _491  and  _492
REMARK  208  A    between atoms: _501  and  _503
REMARK  209  A    between atoms: _503  and  _504
REMARK  210  A    between atoms: _503  and  _506
REMARK  211  A    between atoms: _506  and  _507
REMARK  212  A    between atoms: _510  and  _512
REMARK  213  A    between atoms: _512  and  _513
REMARK  214  A    between atoms: _512  and  _515
REMARK  215  A    between atoms: _518  and  _520
REMARK  216  A    between atoms: _520  and  _521
REMARK  217  A    between atoms: _523  and  _525
REMARK  218  A    between atoms: _525  and  _526
REMARK  219  A    between atoms: _525  and  _528
REMARK  220  A    between atoms: _528  and  _529
REMARK  221  A    between atoms: _529  and  _530
REMARK  222  A    between atoms: _530  and  _531
REMARK  223  A    between atoms: _540  and  _542
REMARK  224  A    between atoms: _542  and  _543
REMARK  225  A    between atoms: _542  and  _545
REMARK  226  A    between atoms: _545  and  _546
REMARK  227  A    between atoms: _546  and  _547
REMARK  228  A    between atoms: _547  and  _548
REMARK  229  A    between atoms: _557  and  _559
REMARK  230  A    between atoms: _559  and  _560
REMARK  231  A    between atoms: _559  and  _562
REMARK  232  A    between atoms: _565  and  _567
REMARK  233  A    between atoms: _567  and  _568
REMARK  234  A    between atoms: _570  and  _572
REMARK  235  A    between atoms: _572  and  _573
REMARK  236  A    between atoms: _572  and  _575
REMARK  237  A    between atoms: _575  and  _576
REMARK  238  A    between atoms: _576  and  _577
REMARK  239  A    between atoms: _577  and  _578
REMARK  240  A    between atoms: _587  and  _589
REMARK  241  A    between atoms: _589  and  _590
REMARK  242  A    between atoms: _589  and  _592
REMARK  243  A    between atoms: _595  and  _597
REMARK  244  A    between atoms: _597  and  _598
REMARK  245  A    between atoms: _597  and  _600
REMARK  246  A    between atoms: _600  and  _601
REMARK  247  A    between atoms: _606  and  _607
REMARK  248  A    between atoms: _609  and  _611
REMARK  249  A    between atoms: _611  and  _612
REMARK  250  A    between atoms: _611  and  _614
REMARK  251  A    between atoms: _614  and  _615
REMARK  252  A    between atoms: _620  and  _622
REMARK  253  A    between atoms: _622  and  _623
REMARK  254  A    between atoms: _622  and  _625
REMARK  255  A    between atoms: _628  and  _630
REMARK  256  A    between atoms: _630  and  _631
REMARK  257  A    between atoms: _630  and  _633
REMARK  258  A    between atoms: _633  and  _634
REMARK  259  A    between atoms: _634  and  _635
REMARK  260  A    between atoms: _635  and  _636
REMARK  261  A    between atoms: _636  and  _637
REMARK  262  A    between atoms: _641  and  _643
REMARK  263  A    between atoms: _643  and  _644
REMARK  264  A    between atoms: _643  and  _646
REMARK  265  A    between atoms: _646  and  _647
REMARK  266  A    between atoms: _653  and  _655
REMARK  267  A    between atoms: _655  and  _656
REMARK  268  A    between atoms: _655  and  _658
REMARK  269  A    between atoms: _658  and  _659
REMARK  270  A    between atoms: _665  and  _666
REMARK  271  A    between atoms: _671  and  _673
REMARK  272  A    between atoms: _673  and  _674
REMARK  273  A    between atoms: _673  and  _676
REMARK  274  A    between atoms: _676  and  _677
REMARK  275  A    between atoms: _677  and  _678
REMARK  276  A    between atoms: _678  and  _679
REMARK  277  A    between atoms: _688  and  _690
REMARK  278  A    between atoms: _690  and  _691
REMARK  279  A    between atoms: _690  and  _693
REMARK  280  A    between atoms: _693  and  _694
REMARK  281  A    between atoms: _697  and  _699
REMARK  282  A    between atoms: _699  and  _700
REMARK  283  A    between atoms: _699  and  _702
REMARK  284  A    between atoms: _702  and  _703
REMARK  285  A    between atoms: _706  and  _708
REMARK  286  A    between atoms: _708  and  _709
REMARK  287  A    between atoms: _708  and  _711
REMARK  288  A    between atoms: _711  and  _712
REMARK  289  A    between atoms: _715  and  _717
REMARK  290  A    between atoms: _717  and  _718
REMARK  291  A    between atoms: _717  and  _720
REMARK  292  A    between atoms: _723  and  _725
REMARK  293  A    between atoms: _725  and  _726
REMARK  294  A    between atoms: _725  and  _728
REMARK  295  A    between atoms: _728  and  _729
REMARK  296  A    between atoms: _729  and  _730
REMARK  297  A    between atoms: _730  and  _731
REMARK  298  A    between atoms: _731  and  _732
REMARK  299  A    between atoms: _736  and  _738
REMARK  300  A    between atoms: _738  and  _739
REMARK  301  A    between atoms: _738  and  _741
REMARK  302  A    between atoms: _741  and  _742
REMARK  303  A    between atoms: _742  and  _743
REMARK  304  A    between atoms: _743  and  _744
REMARK  305  A    between atoms: _753  and  _755
REMARK  306  A    between atoms: _755  and  _756
REMARK  307  A    between atoms: _755  and  _758
REMARK  308  A    between atoms: _758  and  _759
REMARK  309  A    between atoms: _762  and  _764
REMARK  310  A    between atoms: _764  and  _765
REMARK  311  A    between atoms: _764  and  _767
REMARK  312  A    between atoms: _767  and  _768
REMARK  313  A    between atoms: _768  and  _769
REMARK  314  A    between atoms: _772  and  _774
REMARK  315  A    between atoms: _774  and  _775
REMARK  316  A    between atoms: _774  and  _777
REMARK  317  A    between atoms: _777  and  _778
REMARK  318  A    between atoms: _788  and  _790
REMARK  319  A    between atoms: _790  and  _791
REMARK  320  A    between atoms: _790  and  _793
REMARK  321  A    between atoms: _793  and  _794
REMARK  322  A    between atoms: _797  and  _799
REMARK  323  A    between atoms: _799  and  _800
REMARK  324  A    between atoms: _799  and  _802
REMARK  325  A    between atoms: _802  and  _803
REMARK  326  A    between atoms: _806  and  _808
REMARK  327  A    between atoms: _808  and  _809
REMARK  328  A    between atoms: _811  and  _813
REMARK  329  A    between atoms: _813  and  _814
REMARK  330  A    between atoms: _813  and  _816
REMARK  331  A    between atoms: _816  and  _817
REMARK  332  A    between atoms: _820  and  _822
REMARK  333  A    between atoms: _822  and  _823
REMARK  334  A    between atoms: _822  and  _825
REMARK  335  A    between atoms: _825  and  _826
REMARK  336  A    between atoms: _826  and  _827
REMARK  337  A    between atoms: _827  and  _828
REMARK  338  A    between atoms: _828  and  _829
REMARK  339  A    between atoms: _834  and  _835
REMARK  340  A    between atoms: _840  and  _842
REMARK  341  A    between atoms: _842  and  _843
REMARK  342  A    between atoms: _842  and  _845
REMARK  343  A    between atoms: _848  and  _850
REMARK  344  A    between atoms: _850  and  _851
REMARK  345  A    between atoms: _854  and  _856
REMARK  346  A    between atoms: _856  and  _857
REMARK  347  A    between atoms: _856  and  _859
REMARK  348  A    between atoms: _859  and  _860
REMARK  349  A    between atoms: _860  and  _861
REMARK  350  A    between atoms: _864  and  _866
REMARK  351  A    between atoms: _866  and  _867
REMARK  352  A    between atoms: _866  and  _869
REMARK  353  A    between atoms: _872  and  _874
REMARK  354  A    between atoms: _874  and  _875
REMARK  355  A    between atoms: _874  and  _877
REMARK  356  A    between atoms: _877  and  _878
REMARK  357  A    between atoms: _878  and  _879
REMARK  358  A    between atoms: _879  and  _880
REMARK                            x       y       z     vdW  Elec       q    Type
REMARK                         _______ _______ _______ _____ _____    ______ ____
ROOT
ATOM      1  CA  TRP A   2     -21.227  19.893 -46.661  0.00  0.00    +0.141 C 
ENDROOT
BRANCH   1   3
ATOM      2  C   GLU A   1     -22.970  21.452 -47.290  0.00  0.00    +0.238 C 
ATOM      3  N   TRP A   2     -22.622  20.319 -46.690  0.00  0.00    -0.298 N 
ATOM      4  H   TRP A   2     -23.350  19.731 -46.237  0.00  0.00    +0.150 HD
ATOM      5  O   GLU A   1     -22.159  22.168 -47.880  0.00  0.00    -0.274 OA
BRANCH   2   6
ATOM      6  CA  GLU A   1     -24.447  21.838 -47.233  0.00  0.00    +0.145 C 
BRANCH   6   7
ATOM      7  N   GLU A   1     -25.319  20.677 -47.388  0.00  0.00    -0.238 NA
ATOM      8  H   GLU A   1     -26.012  20.469 -46.641  0.00  0.00    +0.142 HD
ENDBRANCH   6   7
BRANCH   6   9
ATOM      9  CB  GLU A   1     -24.738  22.563 -45.913  0.00  0.00    +0.038 C 
BRANCH   9  10
ATOM     10  CG  GLU A   1     -25.938  23.507 -45.940  0.00  0.00    +0.116 C 
BRANCH  10  11
ATOM     11  CD  GLU A   1     -25.673  24.785 -46.723  0.00  0.00    +0.365 C 
ATOM     12  OE2 GLU A   1     -25.430  25.835 -46.089  0.00  0.00    -0.246 OA
ATOM     13  OE1 GLU A   1     -25.710  24.743 -47.970  0.00  0.00    -0.246 OA
ENDBRANCH  10  11
ENDBRANCH   9  10
ENDBRANCH   6   9
ENDBRANCH   2   6
ENDBRANCH   1   3
BRANCH   1  14
ATOM     14  C   TRP A   2     -20.733  19.482 -48.047  0.00  0.00    +0.227 C 
ATOM     15  O   TRP A   2     -19.621  19.834 -48.440  0.00  0.00    -0.286 OA
ENDBRANCH   1  14
BRANCH   1  16
ATOM     16  CB  TRP A   2     -21.024  18.742 -45.675  0.00  0.00    +0.056 C 
BRANCH  16  17
ATOM     17  CG  TRP A   2     -19.577  18.512 -45.351  0.00  0.00    -0.002 A 
ATOM     18  CD1 TRP A   2     -18.870  19.069 -44.327  0.00  0.00    +0.068 A 
ATOM     19  NE1 TRP A   2     -17.570  18.628 -44.354  0.00  0.00    -0.352 N 
ATOM     20  HE1 TRP A   2     -16.826  18.900 -43.680  0.00  0.00    +0.166 HD
ATOM     21  CE2 TRP A   2     -17.412  17.775 -45.409  0.00  0.00    +0.056 A 
ATOM     22  CZ2 TRP A   2     -16.284  17.079 -45.845  0.00  0.00    +0.017 A 
ATOM     23  CH2 TRP A   2     -16.418  16.283 -46.948  0.00  0.00    +0.001 A 
ATOM     24  CZ3 TRP A   2     -17.641  16.164 -47.619  0.00  0.00    +0.000 A 
ATOM     25  CE3 TRP A   2     -18.764  16.852 -47.190  0.00  0.00    +0.001 A 
ATOM     26  CD2 TRP A   2     -18.655  17.675 -46.067  0.00  0.00    +0.013 A 
ENDBRANCH  16  17
ENDBRANCH   1  16
TORSDOF 9
REMARK  Name = ../refined-set-2016/4x8o/4x8o_pocket.pdb
REMARK  358 active torsions:
REMARK  status: ('A' for Active; 'I' for Inactive)
REMARK    1  A    between atoms: _1  and  _3
REMARK    2  A    between atoms: _3  and  _4
REMARK    3  A    between atoms: _3  and  _6
REMARK    4  A    between atoms: _6  and  _7
REMARK    5  A    between atoms: _10  and  _12
REMARK    6  A    between atoms: _12  and  _13
REMARK    7  A    between atoms: _12  and  _15
REMARK    8  A    between atoms: _15  and  _16
REMARK    9  A    between atoms: _19  and  _21
REMARK   10  A    between atoms: _21  and  _22
REMARK   11  A    between atoms: _24  and  _26
REMARK   12  A    between atoms: _26  and  _27
REMARK   13  A    between atoms: _31  and  _32
REMARK   14  A    between atoms: _37  and  _39
REMARK   15  A    between atoms: _39  and  _40
REMARK   16  A    between atoms: _42  and  _44
REMARK   17  A    between atoms: _44  and  _45
REMARK   18  A    between atoms: _48  and  _50
REMARK   19  A    between atoms: _50  and  _51
REMARK   20  A    between atoms: _53  and  _55
REMARK   21  A    between atoms: _55  and  _56
REMARK   22  A    between atoms: _55  and  _58
REMARK   23  A    between atoms: _58  and  _59
REMARK   24  A    between atoms: _59  and  _60
REMARK   25  A    between atoms: _60  and  _61
REMARK   26  A    between atoms: _61  and  _62
REMARK   27  A    between atoms: _66  and  _68
REMARK   28  A    between atoms: _68  and  _69
REMARK   29  A    between atoms: _71  and  _73
REMARK   30  A    between atoms: _73  and  _74
REMARK   31  A    between atoms: _73  and  _76
REMARK   32  A    between atoms: _76  and  _77
REMARK   33  A    between atoms: _80  and  _82
REMARK   34  A    between atoms: _82  and  _83
REMARK   35  A    between atoms: _82  and  _85
REMARK   36  A    between atoms: _85  and  _86
REMARK   37  A    between atoms: _86  and  _87
REMARK   38  A    between atoms: _92  and  _94
REMARK   39  A    between atoms: _94  and  _95
REMARK   40  A    between atoms: _98  and  _100
REMARK   41  A    between atoms: _100  and  _101
REMARK   42  A    between atoms: _100  and  _103
REMARK   43  A    between atoms: _103  and  _104
REMARK   44  A    between atoms: _104  and  _105
REMARK   45  A    between atoms: _110  and  _112
REMARK   46  A    between atoms: _112  and  _113
REMARK   47  A    between atoms: _112  and  _115
REMARK   48  A    between atoms: _115  and  _116
REMARK   49  A    between atoms: _122  and  _124
REMARK   50  A    between atoms: _124  and  _125
REMARK   51  A    between atoms: _124  and  _127
REMARK   52  A    between atoms: _127  and  _128
REMARK   53  A    between atoms: _128  and  _129
REMARK   54  A    between atoms: _134  and  _136
REMARK   55  A    between atoms: _136  and  _137
REMARK   56  A    between atoms: _136  and  _139
REMARK   57  A    between atoms: _139  and  _140
REMARK   58  A    between atoms: _142  and  _144
REMARK   59  A    between atoms: _144  and  _145
REMARK   60  A    between atoms: _144  and  _147
REMARK   61  A    between atoms: _147  and  _148
REMARK   62  A    between atoms: _151  and  _153
REMARK   63  A    between atoms: _153  and  _154
REMARK   64  A    between atoms: _156  and  _158
REMARK   65  A    between atoms: _158  and  _159
REMARK   66  A    between atoms: _158  and  _161
REMARK   67  A    between atoms: _161  and  _162
REMARK   68  A    between atoms: _165  and  _167
REMARK   69  A    between atoms: _167  and  _168
REMARK   70  A    between atoms: _167  and  _170
REMARK   71  A    between atoms: _170  and  _171
REMARK   72  A    between atoms: _171  and  _172
REMARK   73  A    between atoms: _174  and  _176
REMARK   74  A    between atoms: _176  and  _177
REMARK   75  A    between atoms: _176  and  _179
REMARK   76  A    between atoms: _179  and  _180
REMARK   77  A    between atoms: _183  and  _185
REMARK   78  A    between atoms: _185  and  _186
REMARK   79  A    between atoms: _185  and  _188
REMARK   80  A    between atoms: _188  and  _189
REMARK   81  A    between atoms: _189  and  _190
REMARK   82  A    between atoms: _190  and  _191
REMARK   83  A    between atoms: _200  and  _202
REMARK   84  A    between atoms: _202  and  _203
REMARK   85  A    between atoms: _206  and  _208
REMARK   86  A    between atoms: _208  and  _209
REMARK   87  A    between atoms: _208  and  _211
REMARK   88  A    between atoms: _211  and  _212
REMARK   89  A    between atoms: _212  and  _213
REMARK   90  A    between atoms: _213  and  _214
REMARK   91  A    between atoms: _214  and  _215
REMARK   92  A    between atoms: _219  and  _221
REMARK   93  A    between atoms: _221  and  _222
REMARK   94  A    between atoms: _221  and  _224
REMARK   95  A    between atoms: _224  and  _225
REMARK   96  A    between atoms: _228  and  _230
REMARK   97  A    between atoms: _230  and  _231
REMARK   98  A    between atoms: _230  and  _233
REMARK   99  A    between atoms: _233  and  _234
REMARK  100  A    between atoms: _237  and  _239
REMARK  101  A    between atoms: _239  and  _240
REMARK  102  A    between atoms: _239  and  _242
REMARK  103  A    between atoms: _242  and  _243
REMARK  104  A    between atoms: _243  and  _244
REMARK  105  A    between atoms: _246  and  _248
REMARK  106  A    between atoms: _248  and  _249
REMARK  107  A    between atoms: _248  and  _251
REMARK  108  A    between atoms: _251  and  _252
REMARK  109  A    between atoms: _255  and  _257
REMARK  110  A    between atoms: _257  and  _258
REMARK  111  A    between atoms: _261  and  _263
REMARK  112  A    between atoms: _263  and  _264
REMARK  113  A    between atoms: _266  and  _268
REMARK  114  A    between atoms: _268  and  _269
REMARK  115  A    between atoms: _268  and  _271
REMARK  116  A    between atoms: _271  and  _272
REMARK  117  A    between atoms: _272  and  _273
REMARK  118  A    between atoms: _273  and  _274
REMARK  119  A    between atoms: _274  and  _275
REMARK  120  A    between atoms: _279  and  _281
REMARK  121  A    between atoms: _281  and  _282
REMARK  122  A    between atoms: _281  and  _284
REMARK  123  A    between atoms: _284  and  _285
REMARK  124  A    between atoms: _288  and  _290
REMARK  125  A    between atoms: _290  and  _291
REMARK  126  A    between atoms: _290  and  _293
REMARK  127  A    between atoms: _296  and  _298
REMARK  128  A    between atoms: _298  and  _299
REMARK  129  A    between atoms: _298  and  _301
REMARK  130  A    between atoms: _301  and  _302
REMARK  131  A    between atoms: _305  and  _307
REMARK  132  A    between atoms: _307  and  _308
REMARK  133  A    between atoms: _307  and  _310
REMARK  134  A    between atoms: _310  and  _311
REMARK  135  A    between atoms: _314  and  _316
REMARK  136  A    between atoms: _316  and  _317
REMARK  137  A    between atoms: _316  and  _319
REMARK  138  A    between atoms: _319  and  _320
REMARK  139  A    between atoms: _320  and  _321
REMARK  140  A    between atoms: _324  and  _326
REMARK  141  A    between atoms: _326  and  _327
REMARK  142  A    between atoms: _326  and  _329
REMARK  143  A    between atoms: _329  and  _330
REMARK  144  A    between atoms: _333  and  _335
REMARK  145  A    between atoms: _335  and  _336
REMARK  146  A    between atoms: _335  and  _338
REMARK  147  A    between atoms: _341  and  _343
REMARK  148  A    between atoms: _343  and  _344
REMARK  149  A    between atoms: _343  and  _346
REMARK  150  A    between atoms: _346  and  _347
REMARK  151  A    between atoms: _350  and  _352
REMARK  152  A    between atoms: _352  and  _353
REMARK  153  A    between atoms: _352  and  _355
REMARK  154  A    between atoms: _358  and  _360
REMARK  155  A    between atoms: _360  and  _361
REMARK  156  A    between atoms: _360  and  _363
REMARK  157  A    between atoms: _363  and  _364
REMARK  158  A    between atoms: _367  and  _369
REMARK  159  A    between atoms: _369  and  _370
REMARK  160  A    between atoms: _372  and  _374
REMARK  161  A    between atoms: _374  and  _375
REMARK  162  A    between atoms: _374  and  _377
REMARK  163  A    between atoms: _377  and  _378
REMARK  164  A    between atoms: _385  and  _386
REMARK  165  A    between atoms: _391  and  _393
REMARK  166  A    between atoms: _393  and  _394
REMARK  167  A    between atoms: _393  and  _396
REMARK  168  A    between atoms: _396  and  _397
REMARK  169  A    between atoms: _397  and  _398
REMARK  170  A    between atoms: _398  and  _399
REMARK  171  A    between atoms: _408  and  _410
REMARK  172  A    between atoms: _410  and  _411
REMARK  173  A    between atoms: _410  and  _413
REMARK  174  A    between atoms: _413  and  _414
REMARK  175  A    between atoms: _417  and  _419
REMARK  176  A    between atoms: _419  and  _420
REMARK  177  A    between atoms: _419  and  _422
REMARK  178  A    between atoms: _422  and  _423
REMARK  179  A    between atoms: _423  and  _424
REMARK  180  A    between atoms: _429  and  _431
REMARK  181  A    between atoms: _431  and  _432
REMARK  182  A    between atoms: _431  and  _434
REMARK  183  A    between atoms: _434  and  _435
REMARK  184  A    between atoms: _441  and  _443
REMARK  185  A    between atoms: _443  and  _444
REMARK  186  A    between atoms: _443  and  _446
REMARK  187  A    between atoms: _449  and  _451
REMARK  188  A    between atoms: _451  and  _452
REMARK  189  A    between atoms: _451  and  _454
REMARK  190  A    between atoms: _454  and  _455
REMARK  191  A    between atoms: _458  and  _460
REMARK  192  A    between atoms: _460  and  _461
REMARK  193  A    between atoms: _460  and  _463
REMARK  194  A    between atoms: _463  and  _464
REMARK  195  A    between atoms: _467  and  _469
REMARK  196  A    between atoms: _469  and  _470
REMARK  197  A    between atoms: _469  and  _472
REMARK  198  A    between atoms: _475  and  _477
REMARK  199  A    between atoms: _477  and  _478
REMARK  200  A    between atoms: _477  and  _480
REMARK  201  A    between atoms: _480  and  _481
REMARK  202  A    between atoms: _484  and  _486
REMARK  203  A    between atoms: _486  and  _487
REMARK  204  A    between atoms: _486  and  _489
REMARK  205  A    between atoms: _489  and  _490
REMARK  206  A    between atoms: _490  and  _491
REMARK  207  A    between atoms: _491  and  _492
REMARK  208  A    between atoms: _501  and  _503
REMARK  209  A    between atoms: _503  and  _504
REMARK  210  A    between atoms: _503  and  _506
REMARK  211  A    between atoms: _506  and  _507
REMARK  212  A    between atoms: _510  and  _512
REMARK  213  A    between atoms: _512  and  _513
REMARK  214  A    between atoms: _512  and  _515
REMARK  215  A    between atoms: _518  and  _520
REMARK  216  A    between atoms: _520  and  _521
REMARK  217  A    between atoms: _523  and  _525
REMARK  218  A    between atoms: _525  and  _526
REMARK  219  A    between atoms: _525  and  _528
REMARK  220  A    between atoms: _528  and  _529
REMARK  221  A    between atoms: _529  and  _530
REMARK  222  A    between atoms: _530  and  _531
REMARK  223  A    between atoms: _540  and  _542
REMARK  224  A    between atoms: _542  and  _543
REMARK  225  A    between atoms: _542  and  _545
REMARK  226  A    between atoms: _545  and  _546
REMARK  227  A    between atoms: _546  and  _547
REMARK  228  A    between atoms: _547  and  _548
REMARK  229  A    between atoms: _557  and  _559
REMARK  230  A    between atoms: _559  and  _560
REMARK  231  A    between atoms: _559  and  _562
REMARK  232  A    between atoms: _565  and  _567
REMARK  233  A    between atoms: _567  and  _568
REMARK  234  A    between atoms: _570  and  _572
REMARK  235  A    between atoms: _572  and  _573
REMARK  236  A    between atoms: _572  and  _575
REMARK  237  A    between atoms: _575  and  _576
REMARK  238  A    between atoms: _576  and  _577
REMARK  239  A    between atoms: _577  and  _578
REMARK  240  A    between atoms: _587  and  _589
REMARK  241  A    between atoms: _589  and  _590
REMARK  242  A    between atoms: _589  and  _592
REMARK  243  A    between atoms: _595  and  _597
REMARK  244  A    between atoms: _597  and  _598
REMARK  245  A    between atoms: _597  and  _600
REMARK  246  A    between atoms: _600  and  _601
REMARK  247  A    between atoms: _606  and  _607
REMARK  248  A    between atoms: _609  and  _611
REMARK  249  A    between atoms: _611  and  _612
REMARK  250  A    between atoms: _611  and  _614
REMARK  251  A    between atoms: _614  and  _615
REMARK  252  A    between atoms: _620  and  _622
REMARK  253  A    between atoms: _622  and  _623
REMARK  254  A    between atoms: _622  and  _625
REMARK  255  A    between atoms: _628  and  _630
REMARK  256  A    between atoms: _630  and  _631
REMARK  257  A    between atoms: _630  and  _633
REMARK  258  A    between atoms: _633  and  _634
REMARK  259  A    between atoms: _634  and  _635
REMARK  260  A    between atoms: _635  and  _636
REMARK  261  A    between atoms: _636  and  _637
REMARK  262  A    between atoms: _641  and  _643
REMARK  263  A    between atoms: _643  and  _644
REMARK  264  A    between atoms: _643  and  _646
REMARK  265  A    between atoms: _646  and  _647
REMARK  266  A    between atoms: _653  and  _655
REMARK  267  A    between atoms: _655  and  _656
REMARK  268  A    between atoms: _655  and  _658
REMARK  269  A    between atoms: _658  and  _659
REMARK  270  A    between atoms: _665  and  _666
REMARK  271  A    between atoms: _671  and  _673
REMARK  272  A    between atoms: _673  and  _674
REMARK  273  A    between atoms: _673  and  _676
REMARK  274  A    between atoms: _676  and  _677
REMARK  275  A    between atoms: _677  and  _678
REMARK  276  A    between atoms: _678  and  _679
REMARK  277  A    between atoms: _688  and  _690
REMARK  278  A    between atoms: _690  and  _691
REMARK  279  A    between atoms: _690  and  _693
REMARK  280  A    between atoms: _693  and  _694
REMARK  281  A    between atoms: _697  and  _699
REMARK  282  A    between atoms: _699  and  _700
REMARK  283  A    between atoms: _699  and  _702
REMARK  284  A    between atoms: _702  and  _703
REMARK  285  A    between atoms: _706  and  _708
REMARK  286  A    between atoms: _708  and  _709
REMARK  287  A    between atoms: _708  and  _711
REMARK  288  A    between atoms: _711  and  _712
REMARK  289  A    between atoms: _715  and  _717
REMARK  290  A    between atoms: _717  and  _718
REMARK  291  A    between atoms: _717  and  _720
REMARK  292  A    between atoms: _723  and  _725
REMARK  293  A    between atoms: _725  and  _726
REMARK  294  A    between atoms: _725  and  _728
REMARK  295  A    between atoms: _728  and  _729
REMARK  296  A    between atoms: _729  and  _730
REMARK  297  A    between atoms: _730  and  _731
REMARK  298  A    between atoms: _731  and  _732
REMARK  299  A    between atoms: _736  and  _738
REMARK  300  A    between atoms: _738  and  _739
REMARK  301  A    between atoms: _738  and  _741
REMARK  302  A    between atoms: _741  and  _742
REMARK  303  A    between atoms: _742  and  _743
REMARK  304  A    between atoms: _743  and  _744
REMARK  305  A    between atoms: _753  and  _755
REMARK  306  A    between atoms: _755  and  _756
REMARK  307  A    between atoms: _755  and  _758
REMARK  308  A    between atoms: _758  and  _759
REMARK  309  A    between atoms: _762  and  _764
REMARK  310  A    between atoms: _764  and  _765
REMARK  311  A    between atoms: _764  and  _767
REMARK  312  A    between atoms: _767  and  _768
REMARK  313  A    between atoms: _768  and  _769
REMARK  314  A    between atoms: _772  and  _774
REMARK  315  A    between atoms: _774  and  _775
REMARK  316  A    between atoms: _774  and  _777
REMARK  317  A    between atoms: _777  and  _778
REMARK  318  A    between atoms: _788  and  _790
REMARK  319  A    between atoms: _790  and  _791
REMARK  320  A    between atoms: _790  and  _793
REMARK  321  A    between atoms: _793  and  _794
REMARK  322  A    between atoms: _797  and  _799
REMARK  323  A    between atoms: _799  and  _800
REMARK  324  A    between atoms: _799  and  _802
REMARK  325  A    between atoms: _802  and  _803
REMARK  326  A    between atoms: _806  and  _808
REMARK  327  A    between atoms: _808  and  _809
REMARK  328  A    between atoms: _811  and  _813
REMARK  329  A    between atoms: _813  and  _814
REMARK  330  A    between atoms: _813  and  _816
REMARK  331  A    between atoms: _816  and  _817
REMARK  332  A    between atoms: _820  and  _822
REMARK  333  A    between atoms: _822  and  _823
REMARK  334  A    between atoms: _822  and  _825
REMARK  335  A    between atoms: _825  and  _826
REMARK  336  A    between atoms: _826  and  _827
REMARK  337  A    between atoms: _827  and  _828
REMARK  338  A    between atoms: _828  and  _829
REMARK  339  A    between atoms: _834  and  _835
REMARK  340  A    between atoms: _840  and  _842
REMARK  341  A    between atoms: _842  and  _843
REMARK  342  A    between atoms: _842  and  _845
REMARK  343  A    between atoms: _848  and  _850
REMARK  344  A    between atoms: _850  and  _851
REMARK  345  A    between atoms: _854  and  _856
REMARK  346  A    between atoms: _856  and  _857
REMARK  347  A    between atoms: _856  and  _859
REMARK  348  A    between atoms: _859  and  _860
REMARK  349  A    between atoms: _860  and  _861
REMARK  350  A    between atoms: _864  and  _866
REMARK  351  A    between atoms: _866  and  _867
REMARK  352  A    between atoms: _866  and  _869
REMARK  353  A    between atoms: _872  and  _874
REMARK  354  A    between atoms: _874  and  _875
REMARK  355  A    between atoms: _874  and  _877
REMARK  356  A    between atoms: _877  and  _878
REMARK  357  A    between atoms: _878  and  _879
REMARK  358  A    between atoms: _879  and  _880
REMARK                            x       y       z     vdW  Elec       q    Type
REMARK                         _______ _______ _______ _____ _____    ______ ____
ROOT
ATOM      1  CA  THR A   1     -17.165  22.159 -47.688  0.00  0.00    +0.160 C 
ENDROOT
BRANCH   1   2
ATOM      2  N   THR A   1     -18.355  22.533 -48.448  0.00  0.00    -0.237 NA
ATOM      3  H   THR A   1     -19.188  21.910 -48.442  0.00  0.00    +0.142 HD
ENDBRANCH   1   2
BRANCH   1   4
ATOM      4  CB  THR A   1     -17.556  21.624 -46.298  0.00  0.00    +0.134 C 
ATOM      5  CG2 THR A   1     -16.327  21.481 -45.412  0.00  0.00    +0.034 C 
BRANCH   4   6
ATOM      6  OG1 THR A   1     -18.477  22.534 -45.682  0.00  0.00    -0.383 OA
ATOM      7  HG1 THR A   1     -18.049  23.422 -45.588  0.00  0.00    +0.210 HD
ENDBRANCH   4   6
ENDBRANCH   1   4
BRANCH   1   8
ATOM      8  C   THR A   1     -16.285  21.127 -48.390  0.00  0.00    +0.227 C 
ATOM      9  O   THR A   1     -15.058  21.220 -48.339  0.00  0.00    -0.287 OA
ENDBRANCH   1   8
TORSDOF 4
REMARK  Name = ../refined-set-2016/4x8o/4x8o_pocket.pdb
REMARK  358 active torsions:
REMARK  status: ('A' for Active; 'I' for Inactive)
REMARK    1  A    between atoms: _1  and  _3
REMARK    2  A    between atoms: _3  and  _4
REMARK    3  A    between atoms: _3  and  _6
REMARK    4  A    between atoms: _6  and  _7
REMARK    5  A    between atoms: _10  and  _12
REMARK    6  A    between atoms: _12  and  _13
REMARK    7  A    between atoms: _12  and  _15
REMARK    8  A    between atoms: _15  and  _16
REMARK    9  A    between atoms: _19  and  _21
REMARK   10  A    between atoms: _21  and  _22
REMARK   11  A    between atoms: _24  and  _26
REMARK   12  A    between atoms: _26  and  _27
REMARK   13  A    between atoms: _31  and  _32
REMARK   14  A    between atoms: _37  and  _39
REMARK   15  A    between atoms: _39  and  _40
REMARK   16  A    between atoms: _42  and  _44
REMARK   17  A    between atoms: _44  and  _45
REMARK   18  A    between atoms: _48  and  _50
REMARK   19  A    between atoms: _50  and  _51
REMARK   20  A    between atoms: _53  and  _55
REMARK   21  A    between atoms: _55  and  _56
REMARK   22  A    between atoms: _55  and  _58
REMARK   23  A    between atoms: _58  and  _59
REMARK   24  A    between atoms: _59  and  _60
REMARK   25  A    between atoms: _60  and  _61
REMARK   26  A    between atoms: _61  and  _62
REMARK   27  A    between atoms: _66  and  _68
REMARK   28  A    between atoms: _68  and  _69
REMARK   29  A    between atoms: _71  and  _73
REMARK   30  A    between atoms: _73  and  _74
REMARK   31  A    between atoms: _73  and  _76
REMARK   32  A    between atoms: _76  and  _77
REMARK   33  A    between atoms: _80  and  _82
REMARK   34  A    between atoms: _82  and  _83
REMARK   35  A    between atoms: _82  and  _85
REMARK   36  A    between atoms: _85  and  _86
REMARK   37  A    between atoms: _86  and  _87
REMARK   38  A    between atoms: _92  and  _94
REMARK   39  A    between atoms: _94  and  _95
REMARK   40  A    between atoms: _98  and  _100
REMARK   41  A    between atoms: _100  and  _101
REMARK   42  A    between atoms: _100  and  _103
REMARK   43  A    between atoms: _103  and  _104
REMARK   44  A    between atoms: _104  and  _105
REMARK   45  A    between atoms: _110  and  _112
REMARK   46  A    between atoms: _112  and  _113
REMARK   47  A    between atoms: _112  and  _115
REMARK   48  A    between atoms: _115  and  _116
REMARK   49  A    between atoms: _122  and  _124
REMARK   50  A    between atoms: _124  and  _125
REMARK   51  A    between atoms: _124  and  _127
REMARK   52  A    between atoms: _127  and  _128
REMARK   53  A    between atoms: _128  and  _129
REMARK   54  A    between atoms: _134  and  _136
REMARK   55  A    between atoms: _136  and  _137
REMARK   56  A    between atoms: _136  and  _139
REMARK   57  A    between atoms: _139  and  _140
REMARK   58  A    between atoms: _142  and  _144
REMARK   59  A    between atoms: _144  and  _145
REMARK   60  A    between atoms: _144  and  _147
REMARK   61  A    between atoms: _147  and  _148
REMARK   62  A    between atoms: _151  and  _153
REMARK   63  A    between atoms: _153  and  _154
REMARK   64  A    between atoms: _156  and  _158
REMARK   65  A    between atoms: _158  and  _159
REMARK   66  A    between atoms: _158  and  _161
REMARK   67  A    between atoms: _161  and  _162
REMARK   68  A    between atoms: _165  and  _167
REMARK   69  A    between atoms: _167  and  _168
REMARK   70  A    between atoms: _167  and  _170
REMARK   71  A    between atoms: _170  and  _171
REMARK   72  A    between atoms: _171  and  _172
REMARK   73  A    between atoms: _174  and  _176
REMARK   74  A    between atoms: _176  and  _177
REMARK   75  A    between atoms: _176  and  _179
REMARK   76  A    between atoms: _179  and  _180
REMARK   77  A    between atoms: _183  and  _185
REMARK   78  A    between atoms: _185  and  _186
REMARK   79  A    between atoms: _185  and  _188
REMARK   80  A    between atoms: _188  and  _189
REMARK   81  A    between atoms: _189  and  _190
REMARK   82  A    between atoms: _190  and  _191
REMARK   83  A    between atoms: _200  and  _202
REMARK   84  A    between atoms: _202  and  _203
REMARK   85  A    between atoms: _206  and  _208
REMARK   86  A    between atoms: _208  and  _209
REMARK   87  A    between atoms: _208  and  _211
REMARK   88  A    between atoms: _211  and  _212
REMARK   89  A    between atoms: _212  and  _213
REMARK   90  A    between atoms: _213  and  _214
REMARK   91  A    between atoms: _214  and  _215
REMARK   92  A    between atoms: _219  and  _221
REMARK   93  A    between atoms: _221  and  _222
REMARK   94  A    between atoms: _221  and  _224
REMARK   95  A    between atoms: _224  and  _225
REMARK   96  A    between atoms: _228  and  _230
REMARK   97  A    between atoms: _230  and  _231
REMARK   98  A    between atoms: _230  and  _233
REMARK   99  A    between atoms: _233  and  _234
REMARK  100  A    between atoms: _237  and  _239
REMARK  101  A    between atoms: _239  and  _240
REMARK  102  A    between atoms: _239  and  _242
REMARK  103  A    between atoms: _242  and  _243
REMARK  104  A    between atoms: _243  and  _244
REMARK  105  A    between atoms: _246  and  _248
REMARK  106  A    between atoms: _248  and  _249
REMARK  107  A    between atoms: _248  and  _251
REMARK  108  A    between atoms: _251  and  _252
REMARK  109  A    between atoms: _255  and  _257
REMARK  110  A    between atoms: _257  and  _258
REMARK  111  A    between atoms: _261  and  _263
REMARK  112  A    between atoms: _263  and  _264
REMARK  113  A    between atoms: _266  and  _268
REMARK  114  A    between atoms: _268  and  _269
REMARK  115  A    between atoms: _268  and  _271
REMARK  116  A    between atoms: _271  and  _272
REMARK  117  A    between atoms: _272  and  _273
REMARK  118  A    between atoms: _273  and  _274
REMARK  119  A    between atoms: _274  and  _275
REMARK  120  A    between atoms: _279  and  _281
REMARK  121  A    between atoms: _281  and  _282
REMARK  122  A    between atoms: _281  and  _284
REMARK  123  A    between atoms: _284  and  _285
REMARK  124  A    between atoms: _288  and  _290
REMARK  125  A    between atoms: _290  and  _291
REMARK  126  A    between atoms: _290  and  _293
REMARK  127  A    between atoms: _296  and  _298
REMARK  128  A    between atoms: _298  and  _299
REMARK  129  A    between atoms: _298  and  _301
REMARK  130  A    between atoms: _301  and  _302
REMARK  131  A    between atoms: _305  and  _307
REMARK  132  A    between atoms: _307  and  _308
REMARK  133  A    between atoms: _307  and  _310
REMARK  134  A    between atoms: _310  and  _311
REMARK  135  A    between atoms: _314  and  _316
REMARK  136  A    between atoms: _316  and  _317
REMARK  137  A    between atoms: _316  and  _319
REMARK  138  A    between atoms: _319  and  _320
REMARK  139  A    between atoms: _320  and  _321
REMARK  140  A    between atoms: _324  and  _326
REMARK  141  A    between atoms: _326  and  _327
REMARK  142  A    between atoms: _326  and  _329
REMARK  143  A    between atoms: _329  and  _330
REMARK  144  A    between atoms: _333  and  _335
REMARK  145  A    between atoms: _335  and  _336
REMARK  146  A    between atoms: _335  and  _338
REMARK  147  A    between atoms: _341  and  _343
REMARK  148  A    between atoms: _343  and  _344
REMARK  149  A    between atoms: _343  and  _346
REMARK  150  A    between atoms: _346  and  _347
REMARK  151  A    between atoms: _350  and  _352
REMARK  152  A    between atoms: _352  and  _353
REMARK  153  A    between atoms: _352  and  _355
REMARK  154  A    between atoms: _358  and  _360
REMARK  155  A    between atoms: _360  and  _361
REMARK  156  A    between atoms: _360  and  _363
REMARK  157  A    between atoms: _363  and  _364
REMARK  158  A    between atoms: _367  and  _369
REMARK  159  A    between atoms: _369  and  _370
REMARK  160  A    between atoms: _372  and  _374
REMARK  161  A    between atoms: _374  and  _375
REMARK  162  A    between atoms: _374  and  _377
REMARK  163  A    between atoms: _377  and  _378
REMARK  164  A    between atoms: _385  and  _386
REMARK  165  A    between atoms: _391  and  _393
REMARK  166  A    between atoms: _393  and  _394
REMARK  167  A    between atoms: _393  and  _396
REMARK  168  A    between atoms: _396  and  _397
REMARK  169  A    between atoms: _397  and  _398
REMARK  170  A    between atoms: _398  and  _399
REMARK  171  A    between atoms: _408  and  _410
REMARK  172  A    between atoms: _410  and  _411
REMARK  173  A    between atoms: _410  and  _413
REMARK  174  A    between atoms: _413  and  _414
REMARK  175  A    between atoms: _417  and  _419
REMARK  176  A    between atoms: _419  and  _420
REMARK  177  A    between atoms: _419  and  _422
REMARK  178  A    between atoms: _422  and  _423
REMARK  179  A    between atoms: _423  and  _424
REMARK  180  A    between atoms: _429  and  _431
REMARK  181  A    between atoms: _431  and  _432
REMARK  182  A    between atoms: _431  and  _434
REMARK  183  A    between atoms: _434  and  _435
REMARK  184  A    between atoms: _441  and  _443
REMARK  185  A    between atoms: _443  and  _444
REMARK  186  A    between atoms: _443  and  _446
REMARK  187  A    between atoms: _449  and  _451
REMARK  188  A    between atoms: _451  and  _452
REMARK  189  A    between atoms: _451  and  _454
REMARK  190  A    between atoms: _454  and  _455
REMARK  191  A    between atoms: _458  and  _460
REMARK  192  A    between atoms: _460  and  _461
REMARK  193  A    between atoms: _460  and  _463
REMARK  194  A    between atoms: _463  and  _464
REMARK  195  A    between atoms: _467  and  _469
REMARK  196  A    between atoms: _469  and  _470
REMARK  197  A    between atoms: _469  and  _472
REMARK  198  A    between atoms: _475  and  _477
REMARK  199  A    between atoms: _477  and  _478
REMARK  200  A    between atoms: _477  and  _480
REMARK  201  A    between atoms: _480  and  _481
REMARK  202  A    between atoms: _484  and  _486
REMARK  203  A    between atoms: _486  and  _487
REMARK  204  A    between atoms: _486  and  _489
REMARK  205  A    between atoms: _489  and  _490
REMARK  206  A    between atoms: _490  and  _491
REMARK  207  A    between atoms: _491  and  _492
REMARK  208  A    between atoms: _501  and  _503
REMARK  209  A    between atoms: _503  and  _504
REMARK  210  A    between atoms: _503  and  _506
REMARK  211  A    between atoms: _506  and  _507
REMARK  212  A    between atoms: _510  and  _512
REMARK  213  A    between atoms: _512  and  _513
REMARK  214  A    between atoms: _512  and  _515
REMARK  215  A    between atoms: _518  and  _520
REMARK  216  A    between atoms: _520  and  _521
REMARK  217  A    between atoms: _523  and  _525
REMARK  218  A    between atoms: _525  and  _526
REMARK  219  A    between atoms: _525  and  _528
REMARK  220  A    between atoms: _528  and  _529
REMARK  221  A    between atoms: _529  and  _530
REMARK  222  A    between atoms: _530  and  _531
REMARK  223  A    between atoms: _540  and  _542
REMARK  224  A    between atoms: _542  and  _543
REMARK  225  A    between atoms: _542  and  _545
REMARK  226  A    between atoms: _545  and  _546
REMARK  227  A    between atoms: _546  and  _547
REMARK  228  A    between atoms: _547  and  _548
REMARK  229  A    between atoms: _557  and  _559
REMARK  230  A    between atoms: _559  and  _560
REMARK  231  A    between atoms: _559  and  _562
REMARK  232  A    between atoms: _565  and  _567
REMARK  233  A    between atoms: _567  and  _568
REMARK  234  A    between atoms: _570  and  _572
REMARK  235  A    between atoms: _572  and  _573
REMARK  236  A    between atoms: _572  and  _575
REMARK  237  A    between atoms: _575  and  _576
REMARK  238  A    between atoms: _576  and  _577
REMARK  239  A    between atoms: _577  and  _578
REMARK  240  A    between atoms: _587  and  _589
REMARK  241  A    between atoms: _589  and  _590
REMARK  242  A    between atoms: _589  and  _592
REMARK  243  A    between atoms: _595  and  _597
REMARK  244  A    between atoms: _597  and  _598
REMARK  245  A    between atoms: _597  and  _600
REMARK  246  A    between atoms: _600  and  _601
REMARK  247  A    between atoms: _606  and  _607
REMARK  248  A    between atoms: _609  and  _611
REMARK  249  A    between atoms: _611  and  _612
REMARK  250  A    between atoms: _611  and  _614
REMARK  251  A    between atoms: _614  and  _615
REMARK  252  A    between atoms: _620  and  _622
REMARK  253  A    between atoms: _622  and  _623
REMARK  254  A    between atoms: _622  and  _625
REMARK  255  A    between atoms: _628  and  _630
REMARK  256  A    between atoms: _630  and  _631
REMARK  257  A    between atoms: _630  and  _633
REMARK  258  A    between atoms: _633  and  _634
REMARK  259  A    between atoms: _634  and  _635
REMARK  260  A    between atoms: _635  and  _636
REMARK  261  A    between atoms: _636  and  _637
REMARK  262  A    between atoms: _641  and  _643
REMARK  263  A    between atoms: _643  and  _644
REMARK  264  A    between atoms: _643  and  _646
REMARK  265  A    between atoms: _646  and  _647
REMARK  266  A    between atoms: _653  and  _655
REMARK  267  A    between atoms: _655  and  _656
REMARK  268  A    between atoms: _655  and  _658
REMARK  269  A    between atoms: _658  and  _659
REMARK  270  A    between atoms: _665  and  _666
REMARK  271  A    between atoms: _671  and  _673
REMARK  272  A    between atoms: _673  and  _674
REMARK  273  A    between atoms: _673  and  _676
REMARK  274  A    between atoms: _676  and  _677
REMARK  275  A    between atoms: _677  and  _678
REMARK  276  A    between atoms: _678  and  _679
REMARK  277  A    between atoms: _688  and  _690
REMARK  278  A    between atoms: _690  and  _691
REMARK  279  A    between atoms: _690  and  _693
REMARK  280  A    between atoms: _693  and  _694
REMARK  281  A    between atoms: _697  and  _699
REMARK  282  A    between atoms: _699  and  _700
REMARK  283  A    between atoms: _699  and  _702
REMARK  284  A    between atoms: _702  and  _703
REMARK  285  A    between atoms: _706  and  _708
REMARK  286  A    between atoms: _708  and  _709
REMARK  287  A    between atoms: _708  and  _711
REMARK  288  A    between atoms: _711  and  _712
REMARK  289  A    between atoms: _715  and  _717
REMARK  290  A    between atoms: _717  and  _718
REMARK  291  A    between atoms: _717  and  _720
REMARK  292  A    between atoms: _723  and  _725
REMARK  293  A    between atoms: _725  and  _726
REMARK  294  A    between atoms: _725  and  _728
REMARK  295  A    between atoms: _728  and  _729
REMARK  296  A    between atoms: _729  and  _730
REMARK  297  A    between atoms: _730  and  _731
REMARK  298  A    between atoms: _731  and  _732
REMARK  299  A    between atoms: _736  and  _738
REMARK  300  A    between atoms: _738  and  _739
REMARK  301  A    between atoms: _738  and  _741
REMARK  302  A    between atoms: _741  and  _742
REMARK  303  A    between atoms: _742  and  _743
REMARK  304  A    between atoms: _743  and  _744
REMARK  305  A    between atoms: _753  and  _755
REMARK  306  A    between atoms: _755  and  _756
REMARK  307  A    between atoms: _755  and  _758
REMARK  308  A    between atoms: _758  and  _759
REMARK  309  A    between atoms: _762  and  _764
REMARK  310  A    between atoms: _764  and  _765
REMARK  311  A    between atoms: _764  and  _767
REMARK  312  A    between atoms: _767  and  _768
REMARK  313  A    between atoms: _768  and  _769
REMARK  314  A    between atoms: _772  and  _774
REMARK  315  A    between atoms: _774  and  _775
REMARK  316  A    between atoms: _774  and  _777
REMARK  317  A    between atoms: _777  and  _778
REMARK  318  A    between atoms: _788  and  _790
REMARK  319  A    between atoms: _790  and  _791
REMARK  320  A    between atoms: _790  and  _793
REMARK  321  A    between atoms: _793  and  _794
REMARK  322  A    between atoms: _797  and  _799
REMARK  323  A    between atoms: _799  and  _800
REMARK  324  A    between atoms: _799  and  _802
REMARK  325  A    between atoms: _802  and  _803
REMARK  326  A    between atoms: _806  and  _808
REMARK  327  A    between atoms: _808  and  _809
REMARK  328  A    between atoms: _811  and  _813
REMARK  329  A    between atoms: _813  and  _814
REMARK  330  A    between atoms: _813  and  _816
REMARK  331  A    between atoms: _816  and  _817
REMARK  332  A    between atoms: _820  and  _822
REMARK  333  A    between atoms: _822  and  _823
REMARK  334  A    between atoms: _822  and  _825
REMARK  335  A    between atoms: _825  and  _826
REMARK  336  A    between atoms: _826  and  _827
REMARK  337  A    between atoms: _827  and  _828
REMARK  338  A    between atoms: _828  and  _829
REMARK  339  A    between atoms: _834  and  _835
REMARK  340  A    between atoms: _840  and  _842
REMARK  341  A    between atoms: _842  and  _843
REMARK  342  A    between atoms: _842  and  _845
REMARK  343  A    between atoms: _848  and  _850
REMARK  344  A    between atoms: _850  and  _851
REMARK  345  A    between atoms: _854  and  _856
REMARK  346  A    between atoms: _856  and  _857
REMARK  347  A    between atoms: _856  and  _859
REMARK  348  A    between atoms: _859  and  _860
REMARK  349  A    between atoms: _860  and  _861
REMARK  350  A    between atoms: _864  and  _866
REMARK  351  A    between atoms: _866  and  _867
REMARK  352  A    between atoms: _866  and  _869
REMARK  353  A    between atoms: _872  and  _874
REMARK  354  A    between atoms: _874  and  _875
REMARK  355  A    between atoms: _874  and  _877
REMARK  356  A    between atoms: _877  and  _878
REMARK  357  A    between atoms: _878  and  _879
REMARK  358  A    between atoms: _879  and  _880
REMARK                            x       y       z     vdW  Elec       q    Type
REMARK                         _______ _______ _______ _____ _____    ______ ____
ROOT
ATOM      1  CA  VAL A   6     -13.042   5.311 -31.398  0.00  0.00    +0.149 C 
ENDROOT
BRANCH   1   3
ATOM      2  C   PRO A   5     -13.096   3.300 -32.792  0.00  0.00    +0.241 C 
ATOM      3  N   VAL A   6     -13.642   4.057 -31.845  0.00  0.00    -0.297 N 
ATOM      4  H   VAL A   6     -14.531   3.744 -31.406  0.00  0.00    +0.150 HD
ATOM      5  O   PRO A   5     -12.018   3.553 -33.332  0.00  0.00    -0.273 OA
BRANCH   2   8
ATOM      6  C   LYS A   4     -13.791   2.586 -35.600  0.00  0.00    +0.244 C 
ATOM      7  N   PRO A   5     -13.636   1.692 -34.605  0.00  0.00    -0.272 N 
ATOM      8  CA  PRO A   5     -13.872   2.052 -33.203  0.00  0.00    +0.152 C 
ATOM      9  CB  PRO A   5     -13.369   0.825 -32.440  0.00  0.00    +0.031 C 
ATOM     10  CG  PRO A   5     -13.597  -0.300 -33.378  0.00  0.00    +0.024 C 
ATOM     11  CD  PRO A   5     -13.337   0.255 -34.755  0.00  0.00    +0.094 C 
ATOM     12  O   LYS A   4     -14.270   3.707 -35.422  0.00  0.00    -0.273 OA
BRANCH   6  13
ATOM     13  CA  LYS A   4     -13.347   2.159 -36.996  0.00  0.00    +0.149 C 
BRANCH  13  16
ATOM     14  C   THR A   3     -15.341   2.990 -38.135  0.00  0.00    +0.243 C 
ATOM     15  O   THR A   3     -16.091   2.311 -37.431  0.00  0.00    -0.273 OA
ATOM     16  N   LYS A   4     -14.016   2.957 -38.024  0.00  0.00    -0.297 N 
ATOM     17  H   LYS A   4     -13.439   3.514 -38.686  0.00  0.00    +0.150 HD
BRANCH  14  18
ATOM     18  CA  THR A   3     -15.910   3.925 -39.198  0.00  0.00    +0.176 C 
BRANCH  18  21
ATOM     19  C   GLY A   2     -14.891   6.100 -38.838  0.00  0.00    +0.243 C 
ATOM     20  O   GLY A   2     -15.643   6.332 -37.892  0.00  0.00    -0.273 OA
ATOM     21  N   THR A   3     -14.958   4.977 -39.549  0.00  0.00    -0.295 N 
ATOM     22  H   THR A   3     -14.325   4.846 -40.364  0.00  0.00    +0.150 HD
BRANCH  19  23
ATOM     23  CA  GLY A   2     -13.835   7.117 -39.238  0.00  0.00    +0.176 C 
BRANCH  23  26
ATOM     24  C   ASP A   1     -12.103   5.955 -40.491  0.00  0.00    +0.239 C 
ATOM     25  O   ASP A   1     -11.745   5.305 -39.508  0.00  0.00    -0.274 OA
ATOM     26  N   GLY A   2     -13.115   6.818 -40.462  0.00  0.00    -0.296 N 
ATOM     27  H   GLY A   2     -13.399   7.293 -41.343  0.00  0.00    +0.150 HD
BRANCH  24  28
ATOM     28  CA  ASP A   1     -11.394   5.799 -41.832  0.00  0.00    +0.156 C 
BRANCH  28  29
ATOM     29  N   ASP A   1     -10.127   6.513 -41.797  0.00  0.00    -0.238 NA
ATOM     30  H   ASP A   1      -9.262   5.984 -41.566  0.00  0.00    +0.142 HD
ENDBRANCH  28  29
BRANCH  28  31
ATOM     31  CB  ASP A   1     -11.154   4.322 -42.169  0.00  0.00    +0.140 C 
BRANCH  31  32
ATOM     32  CG  ASP A   1     -12.411   3.478 -42.072  0.00  0.00    +0.367 C 
ATOM     33  OD2 ASP A   1     -13.528   4.037 -42.031  0.00  0.00    -0.246 OA
ATOM     34  OD1 ASP A   1     -12.275   2.235 -42.055  0.00  0.00    -0.246 OA
ENDBRANCH  31  32
ENDBRANCH  28  31
ENDBRANCH  24  28
ENDBRANCH  23  26
ENDBRANCH  19  23
ENDBRANCH  18  21
BRANCH  18  35
ATOM     35  CB  THR A   3     -16.327   3.087 -40.426  0.00  0.00    +0.137 C 
ATOM     36  CG2 THR A   3     -16.915   3.978 -41.500  0.00  0.00    +0.034 C 
BRANCH  35  37
ATOM     37  OG1 THR A   3     -15.190   2.389 -40.950  0.00  0.00    -0.382 OA
ATOM     38  HG1 THR A   3     -14.498   3.044 -41.221  0.00  0.00    +0.210 HD
ENDBRANCH  35  37
ENDBRANCH  18  35
ENDBRANCH  14  18
ENDBRANCH  13  16
BRANCH  13  39
ATOM     39  CB  LYS A   4     -11.827   2.293 -37.109  0.00  0.00    +0.029 C 
BRANCH  39  40
ATOM     40  CG  LYS A   4     -11.236   1.925 -38.453  0.00  0.00    +0.000 C 
BRANCH  40  41
ATOM     41  CD  LYS A   4      -9.719   1.966 -38.355  0.00  0.00    -0.024 C 
BRANCH  41  42
ATOM     42  CE  LYS A   4      -9.044   1.582 -39.657  0.00  0.00    -0.086 C 
BRANCH  42  43
ATOM     43  NZ  LYS A   4      -7.566   1.524 -39.471  0.00  0.00    +0.380 N 
ATOM     44  HZ1 LYS A   4      -7.337   0.815 -38.745  0.00  0.00    -0.089 HD
ATOM     45  HZ2 LYS A   4      -7.219   2.457 -39.168  0.00  0.00    -0.089 HD
ATOM     46  HZ3 LYS A   4      -7.115   1.260 -40.370  0.00  0.00    -0.089 HD
ENDBRANCH  42  43
ENDBRANCH  41  42
ENDBRANCH  40  41
ENDBRANCH  39  40
ENDBRANCH  13  39
ENDBRANCH   6  13
ENDBRANCH   2   8
ENDBRANCH   1   3
BRANCH   1  47
ATOM     47  C   VAL A   6     -11.561   5.166 -31.040  0.00  0.00    +0.241 C 
ATOM     48  N   ALA A   7     -11.228   4.097 -30.325  0.00  0.00    -0.297 N 
ATOM     49  H   ALA A   7     -11.964   3.407 -30.071  0.00  0.00    +0.150 HD
ATOM     50  O   VAL A   6     -10.738   6.000 -31.419  0.00  0.00    -0.273 OA
BRANCH  48  51
ATOM     51  CA  ALA A   7      -9.856   3.867 -29.888  0.00  0.00    +0.149 C 
ATOM     52  CB  ALA A   7      -9.796   2.664 -28.950  0.00  0.00    +0.031 C 
BRANCH  51  53
ATOM     53  C   ALA A   7      -8.909   3.667 -31.068  0.00  0.00    +0.241 C 
ATOM     54  O   ALA A   7      -7.744   4.050 -31.007  0.00  0.00    -0.273 OA
ATOM     55  N   GLU A   8      -9.414   3.073 -32.144  0.00  0.00    -0.297 N 
ATOM     56  H   GLU A   8     -10.422   2.820 -32.164  0.00  0.00    +0.150 HD
BRANCH  55  57
ATOM     57  CA  GLU A   8      -8.573   2.771 -33.299  0.00  0.00    +0.149 C 
BRANCH  57  58
ATOM     58  C   GLU A   8      -8.367   3.999 -34.183  0.00  0.00    +0.241 C 
ATOM     59  N   VAL A   9      -9.411   4.808 -34.340  0.00  0.00    -0.297 N 
ATOM     60  H   VAL A   9     -10.336   4.533 -33.953  0.00  0.00    +0.150 HD
ATOM     61  O   GLU A   8      -7.275   4.208 -34.713  0.00  0.00    -0.273 OA
BRANCH  59  62
ATOM     62  CA  VAL A   9      -9.275   6.079 -35.050  0.00  0.00    +0.149 C 
BRANCH  62  63
ATOM     63  C   VAL A   9      -8.258   6.947 -34.309  0.00  0.00    +0.241 C 
ATOM     64  N   ARG A  10      -8.329   6.919 -32.983  0.00  0.00    -0.298 N 
ATOM     65  H   ARG A  10      -9.091   6.375 -32.530  0.00  0.00    +0.150 HD
ATOM     66  O   VAL A   9      -7.419   7.608 -34.921  0.00  0.00    -0.273 OA
BRANCH  64  67
ATOM     67  CA  ARG A  10      -7.372   7.628 -32.144  0.00  0.00    +0.137 C 
BRANCH  67  68
ATOM     68  C   ARG A  10      -5.942   7.172 -32.424  0.00  0.00    +0.227 C 
ATOM     69  O   ARG A  10      -5.035   7.994 -32.556  0.00  0.00    -0.286 OA
ENDBRANCH  67  68
BRANCH  67  70
ATOM     70  CB  ARG A  10      -7.707   7.425 -30.666  0.00  0.00    +0.031 C 
BRANCH  70  71
ATOM     71  CG  ARG A  10      -6.728   8.094 -29.716  0.00  0.00    +0.045 C 
BRANCH  71  72
ATOM     72  CD  ARG A  10      -7.111   7.845 -28.269  0.00  0.00    +0.174 C 
BRANCH  72  73
ATOM     73  NE  ARG A  10      -6.275   8.608 -27.350  0.00  0.00    -0.265 N 
ATOM     74  CZ  ARG A  10      -6.378   8.548 -26.027  0.00  0.00    +0.342 C 
ATOM     75  NH2 ARG A  10      -5.577   9.277 -25.263  0.00  0.00    -0.292 N 
ATOM     76 HH21 ARG A  10      -5.660   9.228 -24.227  0.00  0.00    +0.255 HD
ATOM     77 HH22 ARG A  10      -4.866   9.898 -25.699  0.00  0.00    +0.255 HD
ATOM     78  NH1 ARG A  10      -7.285   7.761 -25.469  0.00  0.00    -0.292 N 
ATOM     79 HH11 ARG A  10      -7.366   7.714 -24.433  0.00  0.00    +0.255 HD
ATOM     80 HH12 ARG A  10      -7.916   7.190 -26.067  0.00  0.00    +0.255 HD
ATOM     81  HE  ARG A  10      -5.554   9.238 -27.755  0.00  0.00    +0.259 HD
ENDBRANCH  72  73
ENDBRANCH  71  72
ENDBRANCH  70  71
ENDBRANCH  67  70
ENDBRANCH  64  67
ENDBRANCH  62  63
BRANCH  62  82
ATOM     82  CB  VAL A   9     -10.625   6.823 -35.168  0.00  0.00    +0.027 C 
ATOM     83  CG2 VAL A   9     -11.658   5.948 -35.870  0.00  0.00    +0.002 C 
ATOM     84  CG1 VAL A   9     -10.451   8.140 -35.912  0.00  0.00    +0.002 C 
ENDBRANCH  62  82
ENDBRANCH  59  62
ENDBRANCH  57  58
BRANCH  57  85
ATOM     85  CB  GLU A   8      -9.168   1.620 -34.111  0.00  0.00    +0.041 C 
BRANCH  85  86
ATOM     86  CG  GLU A   8      -9.134   0.289 -33.375  0.00  0.00    +0.116 C 
BRANCH  86  87
ATOM     87  CD  GLU A   8      -9.714  -0.849 -34.189  0.00  0.00    +0.365 C 
ATOM     88  OE2 GLU A   8     -10.252  -1.799 -33.580  0.00  0.00    -0.246 OA
ATOM     89  OE1 GLU A   8      -9.633  -0.794 -35.434  0.00  0.00    -0.246 OA
ENDBRANCH  86  87
ENDBRANCH  85  86
ENDBRANCH  57  85
ENDBRANCH  55  57
ENDBRANCH  51  53
ENDBRANCH  48  51
ENDBRANCH   1  47
BRANCH   1  90
ATOM     90  CB  VAL A   6     -13.798   5.878 -30.178  0.00  0.00    +0.027 C 
ATOM     91  CG2 VAL A   6     -13.063   7.082 -29.596  0.00  0.00    +0.002 C 
ATOM     92  CG1 VAL A   6     -15.218   6.251 -30.564  0.00  0.00    +0.002 C 
ENDBRANCH   1  90
TORSDOF 37
REMARK  Name = ../refined-set-2016/4x8o/4x8o_pocket.pdb
REMARK  358 active torsions:
REMARK  status: ('A' for Active; 'I' for Inactive)
REMARK    1  A    between atoms: _1  and  _3
REMARK    2  A    between atoms: _3  and  _4
REMARK    3  A    between atoms: _3  and  _6
REMARK    4  A    between atoms: _6  and  _7
REMARK    5  A    between atoms: _10  and  _12
REMARK    6  A    between atoms: _12  and  _13
REMARK    7  A    between atoms: _12  and  _15
REMARK    8  A    between atoms: _15  and  _16
REMARK    9  A    between atoms: _19  and  _21
REMARK   10  A    between atoms: _21  and  _22
REMARK   11  A    between atoms: _24  and  _26
REMARK   12  A    between atoms: _26  and  _27
REMARK   13  A    between atoms: _31  and  _32
REMARK   14  A    between atoms: _37  and  _39
REMARK   15  A    between atoms: _39  and  _40
REMARK   16  A    between atoms: _42  and  _44
REMARK   17  A    between atoms: _44  and  _45
REMARK   18  A    between atoms: _48  and  _50
REMARK   19  A    between atoms: _50  and  _51
REMARK   20  A    between atoms: _53  and  _55
REMARK   21  A    between atoms: _55  and  _56
REMARK   22  A    between atoms: _55  and  _58
REMARK   23  A    between atoms: _58  and  _59
REMARK   24  A    between atoms: _59  and  _60
REMARK   25  A    between atoms: _60  and  _61
REMARK   26  A    between atoms: _61  and  _62
REMARK   27  A    between atoms: _66  and  _68
REMARK   28  A    between atoms: _68  and  _69
REMARK   29  A    between atoms: _71  and  _73
REMARK   30  A    between atoms: _73  and  _74
REMARK   31  A    between atoms: _73  and  _76
REMARK   32  A    between atoms: _76  and  _77
REMARK   33  A    between atoms: _80  and  _82
REMARK   34  A    between atoms: _82  and  _83
REMARK   35  A    between atoms: _82  and  _85
REMARK   36  A    between atoms: _85  and  _86
REMARK   37  A    between atoms: _86  and  _87
REMARK   38  A    between atoms: _92  and  _94
REMARK   39  A    between atoms: _94  and  _95
REMARK   40  A    between atoms: _98  and  _100
REMARK   41  A    between atoms: _100  and  _101
REMARK   42  A    between atoms: _100  and  _103
REMARK   43  A    between atoms: _103  and  _104
REMARK   44  A    between atoms: _104  and  _105
REMARK   45  A    between atoms: _110  and  _112
REMARK   46  A    between atoms: _112  and  _113
REMARK   47  A    between atoms: _112  and  _115
REMARK   48  A    between atoms: _115  and  _116
REMARK   49  A    between atoms: _122  and  _124
REMARK   50  A    between atoms: _124  and  _125
REMARK   51  A    between atoms: _124  and  _127
REMARK   52  A    between atoms: _127  and  _128
REMARK   53  A    between atoms: _128  and  _129
REMARK   54  A    between atoms: _134  and  _136
REMARK   55  A    between atoms: _136  and  _137
REMARK   56  A    between atoms: _136  and  _139
REMARK   57  A    between atoms: _139  and  _140
REMARK   58  A    between atoms: _142  and  _144
REMARK   59  A    between atoms: _144  and  _145
REMARK   60  A    between atoms: _144  and  _147
REMARK   61  A    between atoms: _147  and  _148
REMARK   62  A    between atoms: _151  and  _153
REMARK   63  A    between atoms: _153  and  _154
REMARK   64  A    between atoms: _156  and  _158
REMARK   65  A    between atoms: _158  and  _159
REMARK   66  A    between atoms: _158  and  _161
REMARK   67  A    between atoms: _161  and  _162
REMARK   68  A    between atoms: _165  and  _167
REMARK   69  A    between atoms: _167  and  _168
REMARK   70  A    between atoms: _167  and  _170
REMARK   71  A    between atoms: _170  and  _171
REMARK   72  A    between atoms: _171  and  _172
REMARK   73  A    between atoms: _174  and  _176
REMARK   74  A    between atoms: _176  and  _177
REMARK   75  A    between atoms: _176  and  _179
REMARK   76  A    between atoms: _179  and  _180
REMARK   77  A    between atoms: _183  and  _185
REMARK   78  A    between atoms: _185  and  _186
REMARK   79  A    between atoms: _185  and  _188
REMARK   80  A    between atoms: _188  and  _189
REMARK   81  A    between atoms: _189  and  _190
REMARK   82  A    between atoms: _190  and  _191
REMARK   83  A    between atoms: _200  and  _202
REMARK   84  A    between atoms: _202  and  _203
REMARK   85  A    between atoms: _206  and  _208
REMARK   86  A    between atoms: _208  and  _209
REMARK   87  A    between atoms: _208  and  _211
REMARK   88  A    between atoms: _211  and  _212
REMARK   89  A    between atoms: _212  and  _213
REMARK   90  A    between atoms: _213  and  _214
REMARK   91  A    between atoms: _214  and  _215
REMARK   92  A    between atoms: _219  and  _221
REMARK   93  A    between atoms: _221  and  _222
REMARK   94  A    between atoms: _221  and  _224
REMARK   95  A    between atoms: _224  and  _225
REMARK   96  A    between atoms: _228  and  _230
REMARK   97  A    between atoms: _230  and  _231
REMARK   98  A    between atoms: _230  and  _233
REMARK   99  A    between atoms: _233  and  _234
REMARK  100  A    between atoms: _237  and  _239
REMARK  101  A    between atoms: _239  and  _240
REMARK  102  A    between atoms: _239  and  _242
REMARK  103  A    between atoms: _242  and  _243
REMARK  104  A    between atoms: _243  and  _244
REMARK  105  A    between atoms: _246  and  _248
REMARK  106  A    between atoms: _248  and  _249
REMARK  107  A    between atoms: _248  and  _251
REMARK  108  A    between atoms: _251  and  _252
REMARK  109  A    between atoms: _255  and  _257
REMARK  110  A    between atoms: _257  and  _258
REMARK  111  A    between atoms: _261  and  _263
REMARK  112  A    between atoms: _263  and  _264
REMARK  113  A    between atoms: _266  and  _268
REMARK  114  A    between atoms: _268  and  _269
REMARK  115  A    between atoms: _268  and  _271
REMARK  116  A    between atoms: _271  and  _272
REMARK  117  A    between atoms: _272  and  _273
REMARK  118  A    between atoms: _273  and  _274
REMARK  119  A    between atoms: _274  and  _275
REMARK  120  A    between atoms: _279  and  _281
REMARK  121  A    between atoms: _281  and  _282
REMARK  122  A    between atoms: _281  and  _284
REMARK  123  A    between atoms: _284  and  _285
REMARK  124  A    between atoms: _288  and  _290
REMARK  125  A    between atoms: _290  and  _291
REMARK  126  A    between atoms: _290  and  _293
REMARK  127  A    between atoms: _296  and  _298
REMARK  128  A    between atoms: _298  and  _299
REMARK  129  A    between atoms: _298  and  _301
REMARK  130  A    between atoms: _301  and  _302
REMARK  131  A    between atoms: _305  and  _307
REMARK  132  A    between atoms: _307  and  _308
REMARK  133  A    between atoms: _307  and  _310
REMARK  134  A    between atoms: _310  and  _311
REMARK  135  A    between atoms: _314  and  _316
REMARK  136  A    between atoms: _316  and  _317
REMARK  137  A    between atoms: _316  and  _319
REMARK  138  A    between atoms: _319  and  _320
REMARK  139  A    between atoms: _320  and  _321
REMARK  140  A    between atoms: _324  and  _326
REMARK  141  A    between atoms: _326  and  _327
REMARK  142  A    between atoms: _326  and  _329
REMARK  143  A    between atoms: _329  and  _330
REMARK  144  A    between atoms: _333  and  _335
REMARK  145  A    between atoms: _335  and  _336
REMARK  146  A    between atoms: _335  and  _338
REMARK  147  A    between atoms: _341  and  _343
REMARK  148  A    between atoms: _343  and  _344
REMARK  149  A    between atoms: _343  and  _346
REMARK  150  A    between atoms: _346  and  _347
REMARK  151  A    between atoms: _350  and  _352
REMARK  152  A    between atoms: _352  and  _353
REMARK  153  A    between atoms: _352  and  _355
REMARK  154  A    between atoms: _358  and  _360
REMARK  155  A    between atoms: _360  and  _361
REMARK  156  A    between atoms: _360  and  _363
REMARK  157  A    between atoms: _363  and  _364
REMARK  158  A    between atoms: _367  and  _369
REMARK  159  A    between atoms: _369  and  _370
REMARK  160  A    between atoms: _372  and  _374
REMARK  161  A    between atoms: _374  and  _375
REMARK  162  A    between atoms: _374  and  _377
REMARK  163  A    between atoms: _377  and  _378
REMARK  164  A    between atoms: _385  and  _386
REMARK  165  A    between atoms: _391  and  _393
REMARK  166  A    between atoms: _393  and  _394
REMARK  167  A    between atoms: _393  and  _396
REMARK  168  A    between atoms: _396  and  _397
REMARK  169  A    between atoms: _397  and  _398
REMARK  170  A    between atoms: _398  and  _399
REMARK  171  A    between atoms: _408  and  _410
REMARK  172  A    between atoms: _410  and  _411
REMARK  173  A    between atoms: _410  and  _413
REMARK  174  A    between atoms: _413  and  _414
REMARK  175  A    between atoms: _417  and  _419
REMARK  176  A    between atoms: _419  and  _420
REMARK  177  A    between atoms: _419  and  _422
REMARK  178  A    between atoms: _422  and  _423
REMARK  179  A    between atoms: _423  and  _424
REMARK  180  A    between atoms: _429  and  _431
REMARK  181  A    between atoms: _431  and  _432
REMARK  182  A    between atoms: _431  and  _434
REMARK  183  A    between atoms: _434  and  _435
REMARK  184  A    between atoms: _441  and  _443
REMARK  185  A    between atoms: _443  and  _444
REMARK  186  A    between atoms: _443  and  _446
REMARK  187  A    between atoms: _449  and  _451
REMARK  188  A    between atoms: _451  and  _452
REMARK  189  A    between atoms: _451  and  _454
REMARK  190  A    between atoms: _454  and  _455
REMARK  191  A    between atoms: _458  and  _460
REMARK  192  A    between atoms: _460  and  _461
REMARK  193  A    between atoms: _460  and  _463
REMARK  194  A    between atoms: _463  and  _464
REMARK  195  A    between atoms: _467  and  _469
REMARK  196  A    between atoms: _469  and  _470
REMARK  197  A    between atoms: _469  and  _472
REMARK  198  A    between atoms: _475  and  _477
REMARK  199  A    between atoms: _477  and  _478
REMARK  200  A    between atoms: _477  and  _480
REMARK  201  A    between atoms: _480  and  _481
REMARK  202  A    between atoms: _484  and  _486
REMARK  203  A    between atoms: _486  and  _487
REMARK  204  A    between atoms: _486  and  _489
REMARK  205  A    between atoms: _489  and  _490
REMARK  206  A    between atoms: _490  and  _491
REMARK  207  A    between atoms: _491  and  _492
REMARK  208  A    between atoms: _501  and  _503
REMARK  209  A    between atoms: _503  and  _504
REMARK  210  A    between atoms: _503  and  _506
REMARK  211  A    between atoms: _506  and  _507
REMARK  212  A    between atoms: _510  and  _512
REMARK  213  A    between atoms: _512  and  _513
REMARK  214  A    between atoms: _512  and  _515
REMARK  215  A    between atoms: _518  and  _520
REMARK  216  A    between atoms: _520  and  _521
REMARK  217  A    between atoms: _523  and  _525
REMARK  218  A    between atoms: _525  and  _526
REMARK  219  A    between atoms: _525  and  _528
REMARK  220  A    between atoms: _528  and  _529
REMARK  221  A    between atoms: _529  and  _530
REMARK  222  A    between atoms: _530  and  _531
REMARK  223  A    between atoms: _540  and  _542
REMARK  224  A    between atoms: _542  and  _543
REMARK  225  A    between atoms: _542  and  _545
REMARK  226  A    between atoms: _545  and  _546
REMARK  227  A    between atoms: _546  and  _547
REMARK  228  A    between atoms: _547  and  _548
REMARK  229  A    between atoms: _557  and  _559
REMARK  230  A    between atoms: _559  and  _560
REMARK  231  A    between atoms: _559  and  _562
REMARK  232  A    between atoms: _565  and  _567
REMARK  233  A    between atoms: _567  and  _568
REMARK  234  A    between atoms: _570  and  _572
REMARK  235  A    between atoms: _572  and  _573
REMARK  236  A    between atoms: _572  and  _575
REMARK  237  A    between atoms: _575  and  _576
REMARK  238  A    between atoms: _576  and  _577
REMARK  239  A    between atoms: _577  and  _578
REMARK  240  A    between atoms: _587  and  _589
REMARK  241  A    between atoms: _589  and  _590
REMARK  242  A    between atoms: _589  and  _592
REMARK  243  A    between atoms: _595  and  _597
REMARK  244  A    between atoms: _597  and  _598
REMARK  245  A    between atoms: _597  and  _600
REMARK  246  A    between atoms: _600  and  _601
REMARK  247  A    between atoms: _606  and  _607
REMARK  248  A    between atoms: _609  and  _611
REMARK  249  A    between atoms: _611  and  _612
REMARK  250  A    between atoms: _611  and  _614
REMARK  251  A    between atoms: _614  and  _615
REMARK  252  A    between atoms: _620  and  _622
REMARK  253  A    between atoms: _622  and  _623
REMARK  254  A    between atoms: _622  and  _625
REMARK  255  A    between atoms: _628  and  _630
REMARK  256  A    between atoms: _630  and  _631
REMARK  257  A    between atoms: _630  and  _633
REMARK  258  A    between atoms: _633  and  _634
REMARK  259  A    between atoms: _634  and  _635
REMARK  260  A    between atoms: _635  and  _636
REMARK  261  A    between atoms: _636  and  _637
REMARK  262  A    between atoms: _641  and  _643
REMARK  263  A    between atoms: _643  and  _644
REMARK  264  A    between atoms: _643  and  _646
REMARK  265  A    between atoms: _646  and  _647
REMARK  266  A    between atoms: _653  and  _655
REMARK  267  A    between atoms: _655  and  _656
REMARK  268  A    between atoms: _655  and  _658
REMARK  269  A    between atoms: _658  and  _659
REMARK  270  A    between atoms: _665  and  _666
REMARK  271  A    between atoms: _671  and  _673
REMARK  272  A    between atoms: _673  and  _674
REMARK  273  A    between atoms: _673  and  _676
REMARK  274  A    between atoms: _676  and  _677
REMARK  275  A    between atoms: _677  and  _678
REMARK  276  A    between atoms: _678  and  _679
REMARK  277  A    between atoms: _688  and  _690
REMARK  278  A    between atoms: _690  and  _691
REMARK  279  A    between atoms: _690  and  _693
REMARK  280  A    between atoms: _693  and  _694
REMARK  281  A    between atoms: _697  and  _699
REMARK  282  A    between atoms: _699  and  _700
REMARK  283  A    between atoms: _699  and  _702
REMARK  284  A    between atoms: _702  and  _703
REMARK  285  A    between atoms: _706  and  _708
REMARK  286  A    between atoms: _708  and  _709
REMARK  287  A    between atoms: _708  and  _711
REMARK  288  A    between atoms: _711  and  _712
REMARK  289  A    between atoms: _715  and  _717
REMARK  290  A    between atoms: _717  and  _718
REMARK  291  A    between atoms: _717  and  _720
REMARK  292  A    between atoms: _723  and  _725
REMARK  293  A    between atoms: _725  and  _726
REMARK  294  A    between atoms: _725  and  _728
REMARK  295  A    between atoms: _728  and  _729
REMARK  296  A    between atoms: _729  and  _730
REMARK  297  A    between atoms: _730  and  _731
REMARK  298  A    between atoms: _731  and  _732
REMARK  299  A    between atoms: _736  and  _738
REMARK  300  A    between atoms: _738  and  _739
REMARK  301  A    between atoms: _738  and  _741
REMARK  302  A    between atoms: _741  and  _742
REMARK  303  A    between atoms: _742  and  _743
REMARK  304  A    between atoms: _743  and  _744
REMARK  305  A    between atoms: _753  and  _755
REMARK  306  A    between atoms: _755  and  _756
REMARK  307  A    between atoms: _755  and  _758
REMARK  308  A    between atoms: _758  and  _759
REMARK  309  A    between atoms: _762  and  _764
REMARK  310  A    between atoms: _764  and  _765
REMARK  311  A    between atoms: _764  and  _767
REMARK  312  A    between atoms: _767  and  _768
REMARK  313  A    between atoms: _768  and  _769
REMARK  314  A    between atoms: _772  and  _774
REMARK  315  A    between atoms: _774  and  _775
REMARK  316  A    between atoms: _774  and  _777
REMARK  317  A    between atoms: _777  and  _778
REMARK  318  A    between atoms: _788  and  _790
REMARK  319  A    between atoms: _790  and  _791
REMARK  320  A    between atoms: _790  and  _793
REMARK  321  A    between atoms: _793  and  _794
REMARK  322  A    between atoms: _797  and  _799
REMARK  323  A    between atoms: _799  and  _800
REMARK  324  A    between atoms: _799  and  _802
REMARK  325  A    between atoms: _802  and  _803
REMARK  326  A    between atoms: _806  and  _808
REMARK  327  A    between atoms: _808  and  _809
REMARK  328  A    between atoms: _811  and  _813
REMARK  329  A    between atoms: _813  and  _814
REMARK  330  A    between atoms: _813  and  _816
REMARK  331  A    between atoms: _816  and  _817
REMARK  332  A    between atoms: _820  and  _822
REMARK  333  A    between atoms: _822  and  _823
REMARK  334  A    between atoms: _822  and  _825
REMARK  335  A    between atoms: _825  and  _826
REMARK  336  A    between atoms: _826  and  _827
REMARK  337  A    between atoms: _827  and  _828
REMARK  338  A    between atoms: _828  and  _829
REMARK  339  A    between atoms: _834  and  _835
REMARK  340  A    between atoms: _840  and  _842
REMARK  341  A    between atoms: _842  and  _843
REMARK  342  A    between atoms: _842  and  _845
REMARK  343  A    between atoms: _848  and  _850
REMARK  344  A    between atoms: _850  and  _851
REMARK  345  A    between atoms: _854  and  _856
REMARK  346  A    between atoms: _856  and  _857
REMARK  347  A    between atoms: _856  and  _859
REMARK  348  A    between atoms: _859  and  _860
REMARK  349  A    between atoms: _860  and  _861
REMARK  350  A    between atoms: _864  and  _866
REMARK  351  A    between atoms: _866  and  _867
REMARK  352  A    between atoms: _866  and  _869
REMARK  353  A    between atoms: _872  and  _874
REMARK  354  A    between atoms: _874  and  _875
REMARK  355  A    between atoms: _874  and  _877
REMARK  356  A    between atoms: _877  and  _878
REMARK  357  A    between atoms: _878  and  _879
REMARK  358  A    between atoms: _879  and  _880
REMARK                            x       y       z     vdW  Elec       q    Type
REMARK                         _______ _______ _______ _____ _____    ______ ____
ROOT
ATOM      1 MG   UNL     1     -16.728  18.994 -34.554  0.00  0.00    +0.000 Mg
ENDROOT
TORSDOF 0
REMARK  Name = ../refined-set-2016/4x8o/4x8o_pocket.pdb
REMARK  358 active torsions:
REMARK  status: ('A' for Active; 'I' for Inactive)
REMARK    1  A    between atoms: _1  and  _3
REMARK    2  A    between atoms: _3  and  _4
REMARK    3  A    between atoms: _3  and  _6
REMARK    4  A    between atoms: _6  and  _7
REMARK    5  A    between atoms: _10  and  _12
REMARK    6  A    between atoms: _12  and  _13
REMARK    7  A    between atoms: _12  and  _15
REMARK    8  A    between atoms: _15  and  _16
REMARK    9  A    between atoms: _19  and  _21
REMARK   10  A    between atoms: _21  and  _22
REMARK   11  A    between atoms: _24  and  _26
REMARK   12  A    between atoms: _26  and  _27
REMARK   13  A    between atoms: _31  and  _32
REMARK   14  A    between atoms: _37  and  _39
REMARK   15  A    between atoms: _39  and  _40
REMARK   16  A    between atoms: _42  and  _44
REMARK   17  A    between atoms: _44  and  _45
REMARK   18  A    between atoms: _48  and  _50
REMARK   19  A    between atoms: _50  and  _51
REMARK   20  A    between atoms: _53  and  _55
REMARK   21  A    between atoms: _55  and  _56
REMARK   22  A    between atoms: _55  and  _58
REMARK   23  A    between atoms: _58  and  _59
REMARK   24  A    between atoms: _59  and  _60
REMARK   25  A    between atoms: _60  and  _61
REMARK   26  A    between atoms: _61  and  _62
REMARK   27  A    between atoms: _66  and  _68
REMARK   28  A    between atoms: _68  and  _69
REMARK   29  A    between atoms: _71  and  _73
REMARK   30  A    between atoms: _73  and  _74
REMARK   31  A    between atoms: _73  and  _76
REMARK   32  A    between atoms: _76  and  _77
REMARK   33  A    between atoms: _80  and  _82
REMARK   34  A    between atoms: _82  and  _83
REMARK   35  A    between atoms: _82  and  _85
REMARK   36  A    between atoms: _85  and  _86
REMARK   37  A    between atoms: _86  and  _87
REMARK   38  A    between atoms: _92  and  _94
REMARK   39  A    between atoms: _94  and  _95
REMARK   40  A    between atoms: _98  and  _100
REMARK   41  A    between atoms: _100  and  _101
REMARK   42  A    between atoms: _100  and  _103
REMARK   43  A    between atoms: _103  and  _104
REMARK   44  A    between atoms: _104  and  _105
REMARK   45  A    between atoms: _110  and  _112
REMARK   46  A    between atoms: _112  and  _113
REMARK   47  A    between atoms: _112  and  _115
REMARK   48  A    between atoms: _115  and  _116
REMARK   49  A    between atoms: _122  and  _124
REMARK   50  A    between atoms: _124  and  _125
REMARK   51  A    between atoms: _124  and  _127
REMARK   52  A    between atoms: _127  and  _128
REMARK   53  A    between atoms: _128  and  _129
REMARK   54  A    between atoms: _134  and  _136
REMARK   55  A    between atoms: _136  and  _137
REMARK   56  A    between atoms: _136  and  _139
REMARK   57  A    between atoms: _139  and  _140
REMARK   58  A    between atoms: _142  and  _144
REMARK   59  A    between atoms: _144  and  _145
REMARK   60  A    between atoms: _144  and  _147
REMARK   61  A    between atoms: _147  and  _148
REMARK   62  A    between atoms: _151  and  _153
REMARK   63  A    between atoms: _153  and  _154
REMARK   64  A    between atoms: _156  and  _158
REMARK   65  A    between atoms: _158  and  _159
REMARK   66  A    between atoms: _158  and  _161
REMARK   67  A    between atoms: _161  and  _162
REMARK   68  A    between atoms: _165  and  _167
REMARK   69  A    between atoms: _167  and  _168
REMARK   70  A    between atoms: _167  and  _170
REMARK   71  A    between atoms: _170  and  _171
REMARK   72  A    between atoms: _171  and  _172
REMARK   73  A    between atoms: _174  and  _176
REMARK   74  A    between atoms: _176  and  _177
REMARK   75  A    between atoms: _176  and  _179
REMARK   76  A    between atoms: _179  and  _180
REMARK   77  A    between atoms: _183  and  _185
REMARK   78  A    between atoms: _185  and  _186
REMARK   79  A    between atoms: _185  and  _188
REMARK   80  A    between atoms: _188  and  _189
REMARK   81  A    between atoms: _189  and  _190
REMARK   82  A    between atoms: _190  and  _191
REMARK   83  A    between atoms: _200  and  _202
REMARK   84  A    between atoms: _202  and  _203
REMARK   85  A    between atoms: _206  and  _208
REMARK   86  A    between atoms: _208  and  _209
REMARK   87  A    between atoms: _208  and  _211
REMARK   88  A    between atoms: _211  and  _212
REMARK   89  A    between atoms: _212  and  _213
REMARK   90  A    between atoms: _213  and  _214
REMARK   91  A    between atoms: _214  and  _215
REMARK   92  A    between atoms: _219  and  _221
REMARK   93  A    between atoms: _221  and  _222
REMARK   94  A    between atoms: _221  and  _224
REMARK   95  A    between atoms: _224  and  _225
REMARK   96  A    between atoms: _228  and  _230
REMARK   97  A    between atoms: _230  and  _231
REMARK   98  A    between atoms: _230  and  _233
REMARK   99  A    between atoms: _233  and  _234
REMARK  100  A    between atoms: _237  and  _239
REMARK  101  A    between atoms: _239  and  _240
REMARK  102  A    between atoms: _239  and  _242
REMARK  103  A    between atoms: _242  and  _243
REMARK  104  A    between atoms: _243  and  _244
REMARK  105  A    between atoms: _246  and  _248
REMARK  106  A    between atoms: _248  and  _249
REMARK  107  A    between atoms: _248  and  _251
REMARK  108  A    between atoms: _251  and  _252
REMARK  109  A    between atoms: _255  and  _257
REMARK  110  A    between atoms: _257  and  _258
REMARK  111  A    between atoms: _261  and  _263
REMARK  112  A    between atoms: _263  and  _264
REMARK  113  A    between atoms: _266  and  _268
REMARK  114  A    between atoms: _268  and  _269
REMARK  115  A    between atoms: _268  and  _271
REMARK  116  A    between atoms: _271  and  _272
REMARK  117  A    between atoms: _272  and  _273
REMARK  118  A    between atoms: _273  and  _274
REMARK  119  A    between atoms: _274  and  _275
REMARK  120  A    between atoms: _279  and  _281
REMARK  121  A    between atoms: _281  and  _282
REMARK  122  A    between atoms: _281  and  _284
REMARK  123  A    between atoms: _284  and  _285
REMARK  124  A    between atoms: _288  and  _290
REMARK  125  A    between atoms: _290  and  _291
REMARK  126  A    between atoms: _290  and  _293
REMARK  127  A    between atoms: _296  and  _298
REMARK  128  A    between atoms: _298  and  _299
REMARK  129  A    between atoms: _298  and  _301
REMARK  130  A    between atoms: _301  and  _302
REMARK  131  A    between atoms: _305  and  _307
REMARK  132  A    between atoms: _307  and  _308
REMARK  133  A    between atoms: _307  and  _310
REMARK  134  A    between atoms: _310  and  _311
REMARK  135  A    between atoms: _314  and  _316
REMARK  136  A    between atoms: _316  and  _317
REMARK  137  A    between atoms: _316  and  _319
REMARK  138  A    between atoms: _319  and  _320
REMARK  139  A    between atoms: _320  and  _321
REMARK  140  A    between atoms: _324  and  _326
REMARK  141  A    between atoms: _326  and  _327
REMARK  142  A    between atoms: _326  and  _329
REMARK  143  A    between atoms: _329  and  _330
REMARK  144  A    between atoms: _333  and  _335
REMARK  145  A    between atoms: _335  and  _336
REMARK  146  A    between atoms: _335  and  _338
REMARK  147  A    between atoms: _341  and  _343
REMARK  148  A    between atoms: _343  and  _344
REMARK  149  A    between atoms: _343  and  _346
REMARK  150  A    between atoms: _346  and  _347
REMARK  151  A    between atoms: _350  and  _352
REMARK  152  A    between atoms: _352  and  _353
REMARK  153  A    between atoms: _352  and  _355
REMARK  154  A    between atoms: _358  and  _360
REMARK  155  A    between atoms: _360  and  _361
REMARK  156  A    between atoms: _360  and  _363
REMARK  157  A    between atoms: _363  and  _364
REMARK  158  A    between atoms: _367  and  _369
REMARK  159  A    between atoms: _369  and  _370
REMARK  160  A    between atoms: _372  and  _374
REMARK  161  A    between atoms: _374  and  _375
REMARK  162  A    between atoms: _374  and  _377
REMARK  163  A    between atoms: _377  and  _378
REMARK  164  A    between atoms: _385  and  _386
REMARK  165  A    between atoms: _391  and  _393
REMARK  166  A    between atoms: _393  and  _394
REMARK  167  A    between atoms: _393  and  _396
REMARK  168  A    between atoms: _396  and  _397
REMARK  169  A    between atoms: _397  and  _398
REMARK  170  A    between atoms: _398  and  _399
REMARK  171  A    between atoms: _408  and  _410
REMARK  172  A    between atoms: _410  and  _411
REMARK  173  A    between atoms: _410  and  _413
REMARK  174  A    between atoms: _413  and  _414
REMARK  175  A    between atoms: _417  and  _419
REMARK  176  A    between atoms: _419  and  _420
REMARK  177  A    between atoms: _419  and  _422
REMARK  178  A    between atoms: _422  and  _423
REMARK  179  A    between atoms: _423  and  _424
REMARK  180  A    between atoms: _429  and  _431
REMARK  181  A    between atoms: _431  and  _432
REMARK  182  A    between atoms: _431  and  _434
REMARK  183  A    between atoms: _434  and  _435
REMARK  184  A    between atoms: _441  and  _443
REMARK  185  A    between atoms: _443  and  _444
REMARK  186  A    between atoms: _443  and  _446
REMARK  187  A    between atoms: _449  and  _451
REMARK  188  A    between atoms: _451  and  _452
REMARK  189  A    between atoms: _451  and  _454
REMARK  190  A    between atoms: _454  and  _455
REMARK  191  A    between atoms: _458  and  _460
REMARK  192  A    between atoms: _460  and  _461
REMARK  193  A    between atoms: _460  and  _463
REMARK  194  A    between atoms: _463  and  _464
REMARK  195  A    between atoms: _467  and  _469
REMARK  196  A    between atoms: _469  and  _470
REMARK  197  A    between atoms: _469  and  _472
REMARK  198  A    between atoms: _475  and  _477
REMARK  199  A    between atoms: _477  and  _478
REMARK  200  A    between atoms: _477  and  _480
REMARK  201  A    between atoms: _480  and  _481
REMARK  202  A    between atoms: _484  and  _486
REMARK  203  A    between atoms: _486  and  _487
REMARK  204  A    between atoms: _486  and  _489
REMARK  205  A    between atoms: _489  and  _490
REMARK  206  A    between atoms: _490  and  _491
REMARK  207  A    between atoms: _491  and  _492
REMARK  208  A    between atoms: _501  and  _503
REMARK  209  A    between atoms: _503  and  _504
REMARK  210  A    between atoms: _503  and  _506
REMARK  211  A    between atoms: _506  and  _507
REMARK  212  A    between atoms: _510  and  _512
REMARK  213  A    between atoms: _512  and  _513
REMARK  214  A    between atoms: _512  and  _515
REMARK  215  A    between atoms: _518  and  _520
REMARK  216  A    between atoms: _520  and  _521
REMARK  217  A    between atoms: _523  and  _525
REMARK  218  A    between atoms: _525  and  _526
REMARK  219  A    between atoms: _525  and  _528
REMARK  220  A    between atoms: _528  and  _529
REMARK  221  A    between atoms: _529  and  _530
REMARK  222  A    between atoms: _530  and  _531
REMARK  223  A    between atoms: _540  and  _542
REMARK  224  A    between atoms: _542  and  _543
REMARK  225  A    between atoms: _542  and  _545
REMARK  226  A    between atoms: _545  and  _546
REMARK  227  A    between atoms: _546  and  _547
REMARK  228  A    between atoms: _547  and  _548
REMARK  229  A    between atoms: _557  and  _559
REMARK  230  A    between atoms: _559  and  _560
REMARK  231  A    between atoms: _559  and  _562
REMARK  232  A    between atoms: _565  and  _567
REMARK  233  A    between atoms: _567  and  _568
REMARK  234  A    between atoms: _570  and  _572
REMARK  235  A    between atoms: _572  and  _573
REMARK  236  A    between atoms: _572  and  _575
REMARK  237  A    between atoms: _575  and  _576
REMARK  238  A    between atoms: _576  and  _577
REMARK  239  A    between atoms: _577  and  _578
REMARK  240  A    between atoms: _587  and  _589
REMARK  241  A    between atoms: _589  and  _590
REMARK  242  A    between atoms: _589  and  _592
REMARK  243  A    between atoms: _595  and  _597
REMARK  244  A    between atoms: _597  and  _598
REMARK  245  A    between atoms: _597  and  _600
REMARK  246  A    between atoms: _600  and  _601
REMARK  247  A    between atoms: _606  and  _607
REMARK  248  A    between atoms: _609  and  _611
REMARK  249  A    between atoms: _611  and  _612
REMARK  250  A    between atoms: _611  and  _614
REMARK  251  A    between atoms: _614  and  _615
REMARK  252  A    between atoms: _620  and  _622
REMARK  253  A    between atoms: _622  and  _623
REMARK  254  A    between atoms: _622  and  _625
REMARK  255  A    between atoms: _628  and  _630
REMARK  256  A    between atoms: _630  and  _631
REMARK  257  A    between atoms: _630  and  _633
REMARK  258  A    between atoms: _633  and  _634
REMARK  259  A    between atoms: _634  and  _635
REMARK  260  A    between atoms: _635  and  _636
REMARK  261  A    between atoms: _636  and  _637
REMARK  262  A    between atoms: _641  and  _643
REMARK  263  A    between atoms: _643  and  _644
REMARK  264  A    between atoms: _643  and  _646
REMARK  265  A    between atoms: _646  and  _647
REMARK  266  A    between atoms: _653  and  _655
REMARK  267  A    between atoms: _655  and  _656
REMARK  268  A    between atoms: _655  and  _658
REMARK  269  A    between atoms: _658  and  _659
REMARK  270  A    between atoms: _665  and  _666
REMARK  271  A    between atoms: _671  and  _673
REMARK  272  A    between atoms: _673  and  _674
REMARK  273  A    between atoms: _673  and  _676
REMARK  274  A    between atoms: _676  and  _677
REMARK  275  A    between atoms: _677  and  _678
REMARK  276  A    between atoms: _678  and  _679
REMARK  277  A    between atoms: _688  and  _690
REMARK  278  A    between atoms: _690  and  _691
REMARK  279  A    between atoms: _690  and  _693
REMARK  280  A    between atoms: _693  and  _694
REMARK  281  A    between atoms: _697  and  _699
REMARK  282  A    between atoms: _699  and  _700
REMARK  283  A    between atoms: _699  and  _702
REMARK  284  A    between atoms: _702  and  _703
REMARK  285  A    between atoms: _706  and  _708
REMARK  286  A    between atoms: _708  and  _709
REMARK  287  A    between atoms: _708  and  _711
REMARK  288  A    between atoms: _711  and  _712
REMARK  289  A    between atoms: _715  and  _717
REMARK  290  A    between atoms: _717  and  _718
REMARK  291  A    between atoms: _717  and  _720
REMARK  292  A    between atoms: _723  and  _725
REMARK  293  A    between atoms: _725  and  _726
REMARK  294  A    between atoms: _725  and  _728
REMARK  295  A    between atoms: _728  and  _729
REMARK  296  A    between atoms: _729  and  _730
REMARK  297  A    between atoms: _730  and  _731
REMARK  298  A    between atoms: _731  and  _732
REMARK  299  A    between atoms: _736  and  _738
REMARK  300  A    between atoms: _738  and  _739
REMARK  301  A    between atoms: _738  and  _741
REMARK  302  A    between atoms: _741  and  _742
REMARK  303  A    between atoms: _742  and  _743
REMARK  304  A    between atoms: _743  and  _744
REMARK  305  A    between atoms: _753  and  _755
REMARK  306  A    between atoms: _755  and  _756
REMARK  307  A    between atoms: _755  and  _758
REMARK  308  A    between atoms: _758  and  _759
REMARK  309  A    between atoms: _762  and  _764
REMARK  310  A    between atoms: _764  and  _765
REMARK  311  A    between atoms: _764  and  _767
REMARK  312  A    between atoms: _767  and  _768
REMARK  313  A    between atoms: _768  and  _769
REMARK  314  A    between atoms: _772  and  _774
REMARK  315  A    between atoms: _774  and  _775
REMARK  316  A    between atoms: _774  and  _777
REMARK  317  A    between atoms: _777  and  _778
REMARK  318  A    between atoms: _788  and  _790
REMARK  319  A    between atoms: _790  and  _791
REMARK  320  A    between atoms: _790  and  _793
REMARK  321  A    between atoms: _793  and  _794
REMARK  322  A    between atoms: _797  and  _799
REMARK  323  A    between atoms: _799  and  _800
REMARK  324  A    between atoms: _799  and  _802
REMARK  325  A    between atoms: _802  and  _803
REMARK  326  A    between atoms: _806  and  _808
REMARK  327  A    between atoms: _808  and  _809
REMARK  328  A    between atoms: _811  and  _813
REMARK  329  A    between atoms: _813  and  _814
REMARK  330  A    between atoms: _813  and  _816
REMARK  331  A    between atoms: _816  and  _817
REMARK  332  A    between atoms: _820  and  _822
REMARK  333  A    between atoms: _822  and  _823
REMARK  334  A    between atoms: _822  and  _825
REMARK  335  A    between atoms: _825  and  _826
REMARK  336  A    between atoms: _826  and  _827
REMARK  337  A    between atoms: _827  and  _828
REMARK  338  A    between atoms: _828  and  _829
REMARK  339  A    between atoms: _834  and  _835
REMARK  340  A    between atoms: _840  and  _842
REMARK  341  A    between atoms: _842  and  _843
REMARK  342  A    between atoms: _842  and  _845
REMARK  343  A    between atoms: _848  and  _850
REMARK  344  A    between atoms: _850  and  _851
REMARK  345  A    between atoms: _854  and  _856
REMARK  346  A    between atoms: _856  and  _857
REMARK  347  A    between atoms: _856  and  _859
REMARK  348  A    between atoms: _859  and  _860
REMARK  349  A    between atoms: _860  and  _861
REMARK  350  A    between atoms: _864  and  _866
REMARK  351  A    between atoms: _866  and  _867
REMARK  352  A    between atoms: _866  and  _869
REMARK  353  A    between atoms: _872  and  _874
REMARK  354  A    between atoms: _874  and  _875
REMARK  355  A    between atoms: _874  and  _877
REMARK  356  A    between atoms: _877  and  _878
REMARK  357  A    between atoms: _878  and  _879
REMARK  358  A    between atoms: _879  and  _880
REMARK                            x       y       z     vdW  Elec       q    Type
REMARK                         _______ _______ _______ _____ _____    ______ ____
ROOT
ATOM      1  O   HOH     1     -24.198  34.591 -39.996  0.00  0.00    +0.000 OA
ENDROOT
TORSDOF 0
REMARK  Name = ../refined-set-2016/4x8o/4x8o_pocket.pdb
REMARK  358 active torsions:
REMARK  status: ('A' for Active; 'I' for Inactive)
REMARK    1  A    between atoms: _1  and  _3
REMARK    2  A    between atoms: _3  and  _4
REMARK    3  A    between atoms: _3  and  _6
REMARK    4  A    between atoms: _6  and  _7
REMARK    5  A    between atoms: _10  and  _12
REMARK    6  A    between atoms: _12  and  _13
REMARK    7  A    between atoms: _12  and  _15
REMARK    8  A    between atoms: _15  and  _16
REMARK    9  A    between atoms: _19  and  _21
REMARK   10  A    between atoms: _21  and  _22
REMARK   11  A    between atoms: _24  and  _26
REMARK   12  A    between atoms: _26  and  _27
REMARK   13  A    between atoms: _31  and  _32
REMARK   14  A    between atoms: _37  and  _39
REMARK   15  A    between atoms: _39  and  _40
REMARK   16  A    between atoms: _42  and  _44
REMARK   17  A    between atoms: _44  and  _45
REMARK   18  A    between atoms: _48  and  _50
REMARK   19  A    between atoms: _50  and  _51
REMARK   20  A    between atoms: _53  and  _55
REMARK   21  A    between atoms: _55  and  _56
REMARK   22  A    between atoms: _55  and  _58
REMARK   23  A    between atoms: _58  and  _59
REMARK   24  A    between atoms: _59  and  _60
REMARK   25  A    between atoms: _60  and  _61
REMARK   26  A    between atoms: _61  and  _62
REMARK   27  A    between atoms: _66  and  _68
REMARK   28  A    between atoms: _68  and  _69
REMARK   29  A    between atoms: _71  and  _73
REMARK   30  A    between atoms: _73  and  _74
REMARK   31  A    between atoms: _73  and  _76
REMARK   32  A    between atoms: _76  and  _77
REMARK   33  A    between atoms: _80  and  _82
REMARK   34  A    between atoms: _82  and  _83
REMARK   35  A    between atoms: _82  and  _85
REMARK   36  A    between atoms: _85  and  _86
REMARK   37  A    between atoms: _86  and  _87
REMARK   38  A    between atoms: _92  and  _94
REMARK   39  A    between atoms: _94  and  _95
REMARK   40  A    between atoms: _98  and  _100
REMARK   41  A    between atoms: _100  and  _101
REMARK   42  A    between atoms: _100  and  _103
REMARK   43  A    between atoms: _103  and  _104
REMARK   44  A    between atoms: _104  and  _105
REMARK   45  A    between atoms: _110  and  _112
REMARK   46  A    between atoms: _112  and  _113
REMARK   47  A    between atoms: _112  and  _115
REMARK   48  A    between atoms: _115  and  _116
REMARK   49  A    between atoms: _122  and  _124
REMARK   50  A    between atoms: _124  and  _125
REMARK   51  A    between atoms: _124  and  _127
REMARK   52  A    between atoms: _127  and  _128
REMARK   53  A    between atoms: _128  and  _129
REMARK   54  A    between atoms: _134  and  _136
REMARK   55  A    between atoms: _136  and  _137
REMARK   56  A    between atoms: _136  and  _139
REMARK   57  A    between atoms: _139  and  _140
REMARK   58  A    between atoms: _142  and  _144
REMARK   59  A    between atoms: _144  and  _145
REMARK   60  A    between atoms: _144  and  _147
REMARK   61  A    between atoms: _147  and  _148
REMARK   62  A    between atoms: _151  and  _153
REMARK   63  A    between atoms: _153  and  _154
REMARK   64  A    between atoms: _156  and  _158
REMARK   65  A    between atoms: _158  and  _159
REMARK   66  A    between atoms: _158  and  _161
REMARK   67  A    between atoms: _161  and  _162
REMARK   68  A    between atoms: _165  and  _167
REMARK   69  A    between atoms: _167  and  _168
REMARK   70  A    between atoms: _167  and  _170
REMARK   71  A    between atoms: _170  and  _171
REMARK   72  A    between atoms: _171  and  _172
REMARK   73  A    between atoms: _174  and  _176
REMARK   74  A    between atoms: _176  and  _177
REMARK   75  A    between atoms: _176  and  _179
REMARK   76  A    between atoms: _179  and  _180
REMARK   77  A    between atoms: _183  and  _185
REMARK   78  A    between atoms: _185  and  _186
REMARK   79  A    between atoms: _185  and  _188
REMARK   80  A    between atoms: _188  and  _189
REMARK   81  A    between atoms: _189  and  _190
REMARK   82  A    between atoms: _190  and  _191
REMARK   83  A    between atoms: _200  and  _202
REMARK   84  A    between atoms: _202  and  _203
REMARK   85  A    between atoms: _206  and  _208
REMARK   86  A    between atoms: _208  and  _209
REMARK   87  A    between atoms: _208  and  _211
REMARK   88  A    between atoms: _211  and  _212
REMARK   89  A    between atoms: _212  and  _213
REMARK   90  A    between atoms: _213  and  _214
REMARK   91  A    between atoms: _214  and  _215
REMARK   92  A    between atoms: _219  and  _221
REMARK   93  A    between atoms: _221  and  _222
REMARK   94  A    between atoms: _221  and  _224
REMARK   95  A    between atoms: _224  and  _225
REMARK   96  A    between atoms: _228  and  _230
REMARK   97  A    between atoms: _230  and  _231
REMARK   98  A    between atoms: _230  and  _233
REMARK   99  A    between atoms: _233  and  _234
REMARK  100  A    between atoms: _237  and  _239
REMARK  101  A    between atoms: _239  and  _240
REMARK  102  A    between atoms: _239  and  _242
REMARK  103  A    between atoms: _242  and  _243
REMARK  104  A    between atoms: _243  and  _244
REMARK  105  A    between atoms: _246  and  _248
REMARK  106  A    between atoms: _248  and  _249
REMARK  107  A    between atoms: _248  and  _251
REMARK  108  A    between atoms: _251  and  _252
REMARK  109  A    between atoms: _255  and  _257
REMARK  110  A    between atoms: _257  and  _258
REMARK  111  A    between atoms: _261  and  _263
REMARK  112  A    between atoms: _263  and  _264
REMARK  113  A    between atoms: _266  and  _268
REMARK  114  A    between atoms: _268  and  _269
REMARK  115  A    between atoms: _268  and  _271
REMARK  116  A    between atoms: _271  and  _272
REMARK  117  A    between atoms: _272  and  _273
REMARK  118  A    between atoms: _273  and  _274
REMARK  119  A    between atoms: _274  and  _275
REMARK  120  A    between atoms: _279  and  _281
REMARK  121  A    between atoms: _281  and  _282
REMARK  122  A    between atoms: _281  and  _284
REMARK  123  A    between atoms: _284  and  _285
REMARK  124  A    between atoms: _288  and  _290
REMARK  125  A    between atoms: _290  and  _291
REMARK  126  A    between atoms: _290  and  _293
REMARK  127  A    between atoms: _296  and  _298
REMARK  128  A    between atoms: _298  and  _299
REMARK  129  A    between atoms: _298  and  _301
REMARK  130  A    between atoms: _301  and  _302
REMARK  131  A    between atoms: _305  and  _307
REMARK  132  A    between atoms: _307  and  _308
REMARK  133  A    between atoms: _307  and  _310
REMARK  134  A    between atoms: _310  and  _311
REMARK  135  A    between atoms: _314  and  _316
REMARK  136  A    between atoms: _316  and  _317
REMARK  137  A    between atoms: _316  and  _319
REMARK  138  A    between atoms: _319  and  _320
REMARK  139  A    between atoms: _320  and  _321
REMARK  140  A    between atoms: _324  and  _326
REMARK  141  A    between atoms: _326  and  _327
REMARK  142  A    between atoms: _326  and  _329
REMARK  143  A    between atoms: _329  and  _330
REMARK  144  A    between atoms: _333  and  _335
REMARK  145  A    between atoms: _335  and  _336
REMARK  146  A    between atoms: _335  and  _338
REMARK  147  A    between atoms: _341  and  _343
REMARK  148  A    between atoms: _343  and  _344
REMARK  149  A    between atoms: _343  and  _346
REMARK  150  A    between atoms: _346  and  _347
REMARK  151  A    between atoms: _350  and  _352
REMARK  152  A    between atoms: _352  and  _353
REMARK  153  A    between atoms: _352  and  _355
REMARK  154  A    between atoms: _358  and  _360
REMARK  155  A    between atoms: _360  and  _361
REMARK  156  A    between atoms: _360  and  _363
REMARK  157  A    between atoms: _363  and  _364
REMARK  158  A    between atoms: _367  and  _369
REMARK  159  A    between atoms: _369  and  _370
REMARK  160  A    between atoms: _372  and  _374
REMARK  161  A    between atoms: _374  and  _375
REMARK  162  A    between atoms: _374  and  _377
REMARK  163  A    between atoms: _377  and  _378
REMARK  164  A    between atoms: _385  and  _386
REMARK  165  A    between atoms: _391  and  _393
REMARK  166  A    between atoms: _393  and  _394
REMARK  167  A    between atoms: _393  and  _396
REMARK  168  A    between atoms: _396  and  _397
REMARK  169  A    between atoms: _397  and  _398
REMARK  170  A    between atoms: _398  and  _399
REMARK  171  A    between atoms: _408  and  _410
REMARK  172  A    between atoms: _410  and  _411
REMARK  173  A    between atoms: _410  and  _413
REMARK  174  A    between atoms: _413  and  _414
REMARK  175  A    between atoms: _417  and  _419
REMARK  176  A    between atoms: _419  and  _420
REMARK  177  A    between atoms: _419  and  _422
REMARK  178  A    between atoms: _422  and  _423
REMARK  179  A    between atoms: _423  and  _424
REMARK  180  A    between atoms: _429  and  _431
REMARK  181  A    between atoms: _431  and  _432
REMARK  182  A    between atoms: _431  and  _434
REMARK  183  A    between atoms: _434  and  _435
REMARK  184  A    between atoms: _441  and  _443
REMARK  185  A    between atoms: _443  and  _444
REMARK  186  A    between atoms: _443  and  _446
REMARK  187  A    between atoms: _449  and  _451
REMARK  188  A    between atoms: _451  and  _452
REMARK  189  A    between atoms: _451  and  _454
REMARK  190  A    between atoms: _454  and  _455
REMARK  191  A    between atoms: _458  and  _460
REMARK  192  A    between atoms: _460  and  _461
REMARK  193  A    between atoms: _460  and  _463
REMARK  194  A    between atoms: _463  and  _464
REMARK  195  A    between atoms: _467  and  _469
REMARK  196  A    between atoms: _469  and  _470
REMARK  197  A    between atoms: _469  and  _472
REMARK  198  A    between atoms: _475  and  _477
REMARK  199  A    between atoms: _477  and  _478
REMARK  200  A    between atoms: _477  and  _480
REMARK  201  A    between atoms: _480  and  _481
REMARK  202  A    between atoms: _484  and  _486
REMARK  203  A    between atoms: _486  and  _487
REMARK  204  A    between atoms: _486  and  _489
REMARK  205  A    between atoms: _489  and  _490
REMARK  206  A    between atoms: _490  and  _491
REMARK  207  A    between atoms: _491  and  _492
REMARK  208  A    between atoms: _501  and  _503
REMARK  209  A    between atoms: _503  and  _504
REMARK  210  A    between atoms: _503  and  _506
REMARK  211  A    between atoms: _506  and  _507
REMARK  212  A    between atoms: _510  and  _512
REMARK  213  A    between atoms: _512  and  _513
REMARK  214  A    between atoms: _512  and  _515
REMARK  215  A    between atoms: _518  and  _520
REMARK  216  A    between atoms: _520  and  _521
REMARK  217  A    between atoms: _523  and  _525
REMARK  218  A    between atoms: _525  and  _526
REMARK  219  A    between atoms: _525  and  _528
REMARK  220  A    between atoms: _528  and  _529
REMARK  221  A    between atoms: _529  and  _530
REMARK  222  A    between atoms: _530  and  _531
REMARK  223  A    between atoms: _540  and  _542
REMARK  224  A    between atoms: _542  and  _543
REMARK  225  A    between atoms: _542  and  _545
REMARK  226  A    between atoms: _545  and  _546
REMARK  227  A    between atoms: _546  and  _547
REMARK  228  A    between atoms: _547  and  _548
REMARK  229  A    between atoms: _557  and  _559
REMARK  230  A    between atoms: _559  and  _560
REMARK  231  A    between atoms: _559  and  _562
REMARK  232  A    between atoms: _565  and  _567
REMARK  233  A    between atoms: _567  and  _568
REMARK  234  A    between atoms: _570  and  _572
REMARK  235  A    between atoms: _572  and  _573
REMARK  236  A    between atoms: _572  and  _575
REMARK  237  A    between atoms: _575  and  _576
REMARK  238  A    between atoms: _576  and  _577
REMARK  239  A    between atoms: _577  and  _578
REMARK  240  A    between atoms: _587  and  _589
REMARK  241  A    between atoms: _589  and  _590
REMARK  242  A    between atoms: _589  and  _592
REMARK  243  A    between atoms: _595  and  _597
REMARK  244  A    between atoms: _597  and  _598
REMARK  245  A    between atoms: _597  and  _600
REMARK  246  A    between atoms: _600  and  _601
REMARK  247  A    between atoms: _606  and  _607
REMARK  248  A    between atoms: _609  and  _611
REMARK  249  A    between atoms: _611  and  _612
REMARK  250  A    between atoms: _611  and  _614
REMARK  251  A    between atoms: _614  and  _615
REMARK  252  A    between atoms: _620  and  _622
REMARK  253  A    between atoms: _622  and  _623
REMARK  254  A    between atoms: _622  and  _625
REMARK  255  A    between atoms: _628  and  _630
REMARK  256  A    between atoms: _630  and  _631
REMARK  257  A    between atoms: _630  and  _633
REMARK  258  A    between atoms: _633  and  _634
REMARK  259  A    between atoms: _634  and  _635
REMARK  260  A    between atoms: _635  and  _636
REMARK  261  A    between atoms: _636  and  _637
REMARK  262  A    between atoms: _641  and  _643
REMARK  263  A    between atoms: _643  and  _644
REMARK  264  A    between atoms: _643  and  _646
REMARK  265  A    between atoms: _646  and  _647
REMARK  266  A    between atoms: _653  and  _655
REMARK  267  A    between atoms: _655  and  _656
REMARK  268  A    between atoms: _655  and  _658
REMARK  269  A    between atoms: _658  and  _659
REMARK  270  A    between atoms: _665  and  _666
REMARK  271  A    between atoms: _671  and  _673
REMARK  272  A    between atoms: _673  and  _674
REMARK  273  A    between atoms: _673  and  _676
REMARK  274  A    between atoms: _676  and  _677
REMARK  275  A    between atoms: _677  and  _678
REMARK  276  A    between atoms: _678  and  _679
REMARK  277  A    between atoms: _688  and  _690
REMARK  278  A    between atoms: _690  and  _691
REMARK  279  A    between atoms: _690  and  _693
REMARK  280  A    between atoms: _693  and  _694
REMARK  281  A    between atoms: _697  and  _699
REMARK  282  A    between atoms: _699  and  _700
REMARK  283  A    between atoms: _699  and  _702
REMARK  284  A    between atoms: _702  and  _703
REMARK  285  A    between atoms: _706  and  _708
REMARK  286  A    between atoms: _708  and  _709
REMARK  287  A    between atoms: _708  and  _711
REMARK  288  A    between atoms: _711  and  _712
REMARK  289  A    between atoms: _715  and  _717
REMARK  290  A    between atoms: _717  and  _718
REMARK  291  A    between atoms: _717  and  _720
REMARK  292  A    between atoms: _723  and  _725
REMARK  293  A    between atoms: _725  and  _726
REMARK  294  A    between atoms: _725  and  _728
REMARK  295  A    between atoms: _728  and  _729
REMARK  296  A    between atoms: _729  and  _730
REMARK  297  A    between atoms: _730  and  _731
REMARK  298  A    between atoms: _731  and  _732
REMARK  299  A    between atoms: _736  and  _738
REMARK  300  A    between atoms: _738  and  _739
REMARK  301  A    between atoms: _738  and  _741
REMARK  302  A    between atoms: _741  and  _742
REMARK  303  A    between atoms: _742  and  _743
REMARK  304  A    between atoms: _743  and  _744
REMARK  305  A    between atoms: _753  and  _755
REMARK  306  A    between atoms: _755  and  _756
REMARK  307  A    between atoms: _755  and  _758
REMARK  308  A    between atoms: _758  and  _759
REMARK  309  A    between atoms: _762  and  _764
REMARK  310  A    between atoms: _764  and  _765
REMARK  311  A    between atoms: _764  and  _767
REMARK  312  A    between atoms: _767  and  _768
REMARK  313  A    between atoms: _768  and  _769
REMARK  314  A    between atoms: _772  and  _774
REMARK  315  A    between atoms: _774  and  _775
REMARK  316  A    between atoms: _774  and  _777
REMARK  317  A    between atoms: _777  and  _778
REMARK  318  A    between atoms: _788  and  _790
REMARK  319  A    between atoms: _790  and  _791
REMARK  320  A    between atoms: _790  and  _793
REMARK  321  A    between atoms: _793  and  _794
REMARK  322  A    between atoms: _797  and  _799
REMARK  323  A    between atoms: _799  and  _800
REMARK  324  A    between atoms: _799  and  _802
REMARK  325  A    between atoms: _802  and  _803
REMARK  326  A    between atoms: _806  and  _808
REMARK  327  A    between atoms: _808  and  _809
REMARK  328  A    between atoms: _811  and  _813
REMARK  329  A    between atoms: _813  and  _814
REMARK  330  A    between atoms: _813  and  _816
REMARK  331  A    between atoms: _816  and  _817
REMARK  332  A    between atoms: _820  and  _822
REMARK  333  A    between atoms: _822  and  _823
REMARK  334  A    between atoms: _822  and  _825
REMARK  335  A    between atoms: _825  and  _826
REMARK  336  A    between atoms: _826  and  _827
REMARK  337  A    between atoms: _827  and  _828
REMARK  338  A    between atoms: _828  and  _829
REMARK  339  A    between atoms: _834  and  _835
REMARK  340  A    between atoms: _840  and  _842
REMARK  341  A    between atoms: _842  and  _843
REMARK  342  A    between atoms: _842  and  _845
REMARK  343  A    between atoms: _848  and  _850
REMARK  344  A    between atoms: _850  and  _851
REMARK  345  A    between atoms: _854  and  _856
REMARK  346  A    between atoms: _856  and  _857
REMARK  347  A    between atoms: _856  and  _859
REMARK  348  A    between atoms: _859  and  _860
REMARK  349  A    between atoms: _860  and  _861
REMARK  350  A    between atoms: _864  and  _866
REMARK  351  A    between atoms: _866  and  _867
REMARK  352  A    between atoms: _866  and  _869
REMARK  353  A    between atoms: _872  and  _874
REMARK  354  A    between atoms: _874  and  _875
REMARK  355  A    between atoms: _874  and  _877
REMARK  356  A    between atoms: _877  and  _878
REMARK  357  A    between atoms: _878  and  _879
REMARK  358  A    between atoms: _879  and  _880
REMARK                            x       y       z     vdW  Elec       q    Type
REMARK                         _______ _______ _______ _____ _____    ______ ____
ROOT
ATOM      1  O   HOH     1     -24.661   5.008 -37.937  0.00  0.00    +0.000 OA
ENDROOT
TORSDOF 0
REMARK  Name = ../refined-set-2016/4x8o/4x8o_pocket.pdb
REMARK  358 active torsions:
REMARK  status: ('A' for Active; 'I' for Inactive)
REMARK    1  A    between atoms: _1  and  _3
REMARK    2  A    between atoms: _3  and  _4
REMARK    3  A    between atoms: _3  and  _6
REMARK    4  A    between atoms: _6  and  _7
REMARK    5  A    between atoms: _10  and  _12
REMARK    6  A    between atoms: _12  and  _13
REMARK    7  A    between atoms: _12  and  _15
REMARK    8  A    between atoms: _15  and  _16
REMARK    9  A    between atoms: _19  and  _21
REMARK   10  A    between atoms: _21  and  _22
REMARK   11  A    between atoms: _24  and  _26
REMARK   12  A    between atoms: _26  and  _27
REMARK   13  A    between atoms: _31  and  _32
REMARK   14  A    between atoms: _37  and  _39
REMARK   15  A    between atoms: _39  and  _40
REMARK   16  A    between atoms: _42  and  _44
REMARK   17  A    between atoms: _44  and  _45
REMARK   18  A    between atoms: _48  and  _50
REMARK   19  A    between atoms: _50  and  _51
REMARK   20  A    between atoms: _53  and  _55
REMARK   21  A    between atoms: _55  and  _56
REMARK   22  A    between atoms: _55  and  _58
REMARK   23  A    between atoms: _58  and  _59
REMARK   24  A    between atoms: _59  and  _60
REMARK   25  A    between atoms: _60  and  _61
REMARK   26  A    between atoms: _61  and  _62
REMARK   27  A    between atoms: _66  and  _68
REMARK   28  A    between atoms: _68  and  _69
REMARK   29  A    between atoms: _71  and  _73
REMARK   30  A    between atoms: _73  and  _74
REMARK   31  A    between atoms: _73  and  _76
REMARK   32  A    between atoms: _76  and  _77
REMARK   33  A    between atoms: _80  and  _82
REMARK   34  A    between atoms: _82  and  _83
REMARK   35  A    between atoms: _82  and  _85
REMARK   36  A    between atoms: _85  and  _86
REMARK   37  A    between atoms: _86  and  _87
REMARK   38  A    between atoms: _92  and  _94
REMARK   39  A    between atoms: _94  and  _95
REMARK   40  A    between atoms: _98  and  _100
REMARK   41  A    between atoms: _100  and  _101
REMARK   42  A    between atoms: _100  and  _103
REMARK   43  A    between atoms: _103  and  _104
REMARK   44  A    between atoms: _104  and  _105
REMARK   45  A    between atoms: _110  and  _112
REMARK   46  A    between atoms: _112  and  _113
REMARK   47  A    between atoms: _112  and  _115
REMARK   48  A    between atoms: _115  and  _116
REMARK   49  A    between atoms: _122  and  _124
REMARK   50  A    between atoms: _124  and  _125
REMARK   51  A    between atoms: _124  and  _127
REMARK   52  A    between atoms: _127  and  _128
REMARK   53  A    between atoms: _128  and  _129
REMARK   54  A    between atoms: _134  and  _136
REMARK   55  A    between atoms: _136  and  _137
REMARK   56  A    between atoms: _136  and  _139
REMARK   57  A    between atoms: _139  and  _140
REMARK   58  A    between atoms: _142  and  _144
REMARK   59  A    between atoms: _144  and  _145
REMARK   60  A    between atoms: _144  and  _147
REMARK   61  A    between atoms: _147  and  _148
REMARK   62  A    between atoms: _151  and  _153
REMARK   63  A    between atoms: _153  and  _154
REMARK   64  A    between atoms: _156  and  _158
REMARK   65  A    between atoms: _158  and  _159
REMARK   66  A    between atoms: _158  and  _161
REMARK   67  A    between atoms: _161  and  _162
REMARK   68  A    between atoms: _165  and  _167
REMARK   69  A    between atoms: _167  and  _168
REMARK   70  A    between atoms: _167  and  _170
REMARK   71  A    between atoms: _170  and  _171
REMARK   72  A    between atoms: _171  and  _172
REMARK   73  A    between atoms: _174  and  _176
REMARK   74  A    between atoms: _176  and  _177
REMARK   75  A    between atoms: _176  and  _179
REMARK   76  A    between atoms: _179  and  _180
REMARK   77  A    between atoms: _183  and  _185
REMARK   78  A    between atoms: _185  and  _186
REMARK   79  A    between atoms: _185  and  _188
REMARK   80  A    between atoms: _188  and  _189
REMARK   81  A    between atoms: _189  and  _190
REMARK   82  A    between atoms: _190  and  _191
REMARK   83  A    between atoms: _200  and  _202
REMARK   84  A    between atoms: _202  and  _203
REMARK   85  A    between atoms: _206  and  _208
REMARK   86  A    between atoms: _208  and  _209
REMARK   87  A    between atoms: _208  and  _211
REMARK   88  A    between atoms: _211  and  _212
REMARK   89  A    between atoms: _212  and  _213
REMARK   90  A    between atoms: _213  and  _214
REMARK   91  A    between atoms: _214  and  _215
REMARK   92  A    between atoms: _219  and  _221
REMARK   93  A    between atoms: _221  and  _222
REMARK   94  A    between atoms: _221  and  _224
REMARK   95  A    between atoms: _224  and  _225
REMARK   96  A    between atoms: _228  and  _230
REMARK   97  A    between atoms: _230  and  _231
REMARK   98  A    between atoms: _230  and  _233
REMARK   99  A    between atoms: _233  and  _234
REMARK  100  A    between atoms: _237  and  _239
REMARK  101  A    between atoms: _239  and  _240
REMARK  102  A    between atoms: _239  and  _242
REMARK  103  A    between atoms: _242  and  _243
REMARK  104  A    between atoms: _243  and  _244
REMARK  105  A    between atoms: _246  and  _248
REMARK  106  A    between atoms: _248  and  _249
REMARK  107  A    between atoms: _248  and  _251
REMARK  108  A    between atoms: _251  and  _252
REMARK  109  A    between atoms: _255  and  _257
REMARK  110  A    between atoms: _257  and  _258
REMARK  111  A    between atoms: _261  and  _263
REMARK  112  A    between atoms: _263  and  _264
REMARK  113  A    between atoms: _266  and  _268
REMARK  114  A    between atoms: _268  and  _269
REMARK  115  A    between atoms: _268  and  _271
REMARK  116  A    between atoms: _271  and  _272
REMARK  117  A    between atoms: _272  and  _273
REMARK  118  A    between atoms: _273  and  _274
REMARK  119  A    between atoms: _274  and  _275
REMARK  120  A    between atoms: _279  and  _281
REMARK  121  A    between atoms: _281  and  _282
REMARK  122  A    between atoms: _281  and  _284
REMARK  123  A    between atoms: _284  and  _285
REMARK  124  A    between atoms: _288  and  _290
REMARK  125  A    between atoms: _290  and  _291
REMARK  126  A    between atoms: _290  and  _293
REMARK  127  A    between atoms: _296  and  _298
REMARK  128  A    between atoms: _298  and  _299
REMARK  129  A    between atoms: _298  and  _301
REMARK  130  A    between atoms: _301  and  _302
REMARK  131  A    between atoms: _305  and  _307
REMARK  132  A    between atoms: _307  and  _308
REMARK  133  A    between atoms: _307  and  _310
REMARK  134  A    between atoms: _310  and  _311
REMARK  135  A    between atoms: _314  and  _316
REMARK  136  A    between atoms: _316  and  _317
REMARK  137  A    between atoms: _316  and  _319
REMARK  138  A    between atoms: _319  and  _320
REMARK  139  A    between atoms: _320  and  _321
REMARK  140  A    between atoms: _324  and  _326
REMARK  141  A    between atoms: _326  and  _327
REMARK  142  A    between atoms: _326  and  _329
REMARK  143  A    between atoms: _329  and  _330
REMARK  144  A    between atoms: _333  and  _335
REMARK  145  A    between atoms: _335  and  _336
REMARK  146  A    between atoms: _335  and  _338
REMARK  147  A    between atoms: _341  and  _343
REMARK  148  A    between atoms: _343  and  _344
REMARK  149  A    between atoms: _343  and  _346
REMARK  150  A    between atoms: _346  and  _347
REMARK  151  A    between atoms: _350  and  _352
REMARK  152  A    between atoms: _352  and  _353
REMARK  153  A    between atoms: _352  and  _355
REMARK  154  A    between atoms: _358  and  _360
REMARK  155  A    between atoms: _360  and  _361
REMARK  156  A    between atoms: _360  and  _363
REMARK  157  A    between atoms: _363  and  _364
REMARK  158  A    between atoms: _367  and  _369
REMARK  159  A    between atoms: _369  and  _370
REMARK  160  A    between atoms: _372  and  _374
REMARK  161  A    between atoms: _374  and  _375
REMARK  162  A    between atoms: _374  and  _377
REMARK  163  A    between atoms: _377  and  _378
REMARK  164  A    between atoms: _385  and  _386
REMARK  165  A    between atoms: _391  and  _393
REMARK  166  A    between atoms: _393  and  _394
REMARK  167  A    between atoms: _393  and  _396
REMARK  168  A    between atoms: _396  and  _397
REMARK  169  A    between atoms: _397  and  _398
REMARK  170  A    between atoms: _398  and  _399
REMARK  171  A    between atoms: _408  and  _410
REMARK  172  A    between atoms: _410  and  _411
REMARK  173  A    between atoms: _410  and  _413
REMARK  174  A    between atoms: _413  and  _414
REMARK  175  A    between atoms: _417  and  _419
REMARK  176  A    between atoms: _419  and  _420
REMARK  177  A    between atoms: _419  and  _422
REMARK  178  A    between atoms: _422  and  _423
REMARK  179  A    between atoms: _423  and  _424
REMARK  180  A    between atoms: _429  and  _431
REMARK  181  A    between atoms: _431  and  _432
REMARK  182  A    between atoms: _431  and  _434
REMARK  183  A    between atoms: _434  and  _435
REMARK  184  A    between atoms: _441  and  _443
REMARK  185  A    between atoms: _443  and  _444
REMARK  186  A    between atoms: _443  and  _446
REMARK  187  A    between atoms: _449  and  _451
REMARK  188  A    between atoms: _451  and  _452
REMARK  189  A    between atoms: _451  and  _454
REMARK  190  A    between atoms: _454  and  _455
REMARK  191  A    between atoms: _458  and  _460
REMARK  192  A    between atoms: _460  and  _461
REMARK  193  A    between atoms: _460  and  _463
REMARK  194  A    between atoms: _463  and  _464
REMARK  195  A    between atoms: _467  and  _469
REMARK  196  A    between atoms: _469  and  _470
REMARK  197  A    between atoms: _469  and  _472
REMARK  198  A    between atoms: _475  and  _477
REMARK  199  A    between atoms: _477  and  _478
REMARK  200  A    between atoms: _477  and  _480
REMARK  201  A    between atoms: _480  and  _481
REMARK  202  A    between atoms: _484  and  _486
REMARK  203  A    between atoms: _486  and  _487
REMARK  204  A    between atoms: _486  and  _489
REMARK  205  A    between atoms: _489  and  _490
REMARK  206  A    between atoms: _490  and  _491
REMARK  207  A    between atoms: _491  and  _492
REMARK  208  A    between atoms: _501  and  _503
REMARK  209  A    between atoms: _503  and  _504
REMARK  210  A    between atoms: _503  and  _506
REMARK  211  A    between atoms: _506  and  _507
REMARK  212  A    between atoms: _510  and  _512
REMARK  213  A    between atoms: _512  and  _513
REMARK  214  A    between atoms: _512  and  _515
REMARK  215  A    between atoms: _518  and  _520
REMARK  216  A    between atoms: _520  and  _521
REMARK  217  A    between atoms: _523  and  _525
REMARK  218  A    between atoms: _525  and  _526
REMARK  219  A    between atoms: _525  and  _528
REMARK  220  A    between atoms: _528  and  _529
REMARK  221  A    between atoms: _529  and  _530
REMARK  222  A    between atoms: _530  and  _531
REMARK  223  A    between atoms: _540  and  _542
REMARK  224  A    between atoms: _542  and  _543
REMARK  225  A    between atoms: _542  and  _545
REMARK  226  A    between atoms: _545  and  _546
REMARK  227  A    between atoms: _546  and  _547
REMARK  228  A    between atoms: _547  and  _548
REMARK  229  A    between atoms: _557  and  _559
REMARK  230  A    between atoms: _559  and  _560
REMARK  231  A    between atoms: _559  and  _562
REMARK  232  A    between atoms: _565  and  _567
REMARK  233  A    between atoms: _567  and  _568
REMARK  234  A    between atoms: _570  and  _572
REMARK  235  A    between atoms: _572  and  _573
REMARK  236  A    between atoms: _572  and  _575
REMARK  237  A    between atoms: _575  and  _576
REMARK  238  A    between atoms: _576  and  _577
REMARK  239  A    between atoms: _577  and  _578
REMARK  240  A    between atoms: _587  and  _589
REMARK  241  A    between atoms: _589  and  _590
REMARK  242  A    between atoms: _589  and  _592
REMARK  243  A    between atoms: _595  and  _597
REMARK  244  A    between atoms: _597  and  _598
REMARK  245  A    between atoms: _597  and  _600
REMARK  246  A    between atoms: _600  and  _601
REMARK  247  A    between atoms: _606  and  _607
REMARK  248  A    between atoms: _609  and  _611
REMARK  249  A    between atoms: _611  and  _612
REMARK  250  A    between atoms: _611  and  _614
REMARK  251  A    between atoms: _614  and  _615
REMARK  252  A    between atoms: _620  and  _622
REMARK  253  A    between atoms: _622  and  _623
REMARK  254  A    between atoms: _622  and  _625
REMARK  255  A    between atoms: _628  and  _630
REMARK  256  A    between atoms: _630  and  _631
REMARK  257  A    between atoms: _630  and  _633
REMARK  258  A    between atoms: _633  and  _634
REMARK  259  A    between atoms: _634  and  _635
REMARK  260  A    between atoms: _635  and  _636
REMARK  261  A    between atoms: _636  and  _637
REMARK  262  A    between atoms: _641  and  _643
REMARK  263  A    between atoms: _643  and  _644
REMARK  264  A    between atoms: _643  and  _646
REMARK  265  A    between atoms: _646  and  _647
REMARK  266  A    between atoms: _653  and  _655
REMARK  267  A    between atoms: _655  and  _656
REMARK  268  A    between atoms: _655  and  _658
REMARK  269  A    between atoms: _658  and  _659
REMARK  270  A    between atoms: _665  and  _666
REMARK  271  A    between atoms: _671  and  _673
REMARK  272  A    between atoms: _673  and  _674
REMARK  273  A    between atoms: _673  and  _676
REMARK  274  A    between atoms: _676  and  _677
REMARK  275  A    between atoms: _677  and  _678
REMARK  276  A    between atoms: _678  and  _679
REMARK  277  A    between atoms: _688  and  _690
REMARK  278  A    between atoms: _690  and  _691
REMARK  279  A    between atoms: _690  and  _693
REMARK  280  A    between atoms: _693  and  _694
REMARK  281  A    between atoms: _697  and  _699
REMARK  282  A    between atoms: _699  and  _700
REMARK  283  A    between atoms: _699  and  _702
REMARK  284  A    between atoms: _702  and  _703
REMARK  285  A    between atoms: _706  and  _708
REMARK  286  A    between atoms: _708  and  _709
REMARK  287  A    between atoms: _708  and  _711
REMARK  288  A    between atoms: _711  and  _712
REMARK  289  A    between atoms: _715  and  _717
REMARK  290  A    between atoms: _717  and  _718
REMARK  291  A    between atoms: _717  and  _720
REMARK  292  A    between atoms: _723  and  _725
REMARK  293  A    between atoms: _725  and  _726
REMARK  294  A    between atoms: _725  and  _728
REMARK  295  A    between atoms: _728  and  _729
REMARK  296  A    between atoms: _729  and  _730
REMARK  297  A    between atoms: _730  and  _731
REMARK  298  A    between atoms: _731  and  _732
REMARK  299  A    between atoms: _736  and  _738
REMARK  300  A    between atoms: _738  and  _739
REMARK  301  A    between atoms: _738  and  _741
REMARK  302  A    between atoms: _741  and  _742
REMARK  303  A    between atoms: _742  and  _743
REMARK  304  A    between atoms: _743  and  _744
REMARK  305  A    between atoms: _753  and  _755
REMARK  306  A    between atoms: _755  and  _756
REMARK  307  A    between atoms: _755  and  _758
REMARK  308  A    between atoms: _758  and  _759
REMARK  309  A    between atoms: _762  and  _764
REMARK  310  A    between atoms: _764  and  _765
REMARK  311  A    between atoms: _764  and  _767
REMARK  312  A    between atoms: _767  and  _768
REMARK  313  A    between atoms: _768  and  _769
REMARK  314  A    between atoms: _772  and  _774
REMARK  315  A    between atoms: _774  and  _775
REMARK  316  A    between atoms: _774  and  _777
REMARK  317  A    between atoms: _777  and  _778
REMARK  318  A    between atoms: _788  and  _790
REMARK  319  A    between atoms: _790  and  _791
REMARK  320  A    between atoms: _790  and  _793
REMARK  321  A    between atoms: _793  and  _794
REMARK  322  A    between atoms: _797  and  _799
REMARK  323  A    between atoms: _799  and  _800
REMARK  324  A    between atoms: _799  and  _802
REMARK  325  A    between atoms: _802  and  _803
REMARK  326  A    between atoms: _806  and  _808
REMARK  327  A    between atoms: _808  and  _809
REMARK  328  A    between atoms: _811  and  _813
REMARK  329  A    between atoms: _813  and  _814
REMARK  330  A    between atoms: _813  and  _816
REMARK  331  A    between atoms: _816  and  _817
REMARK  332  A    between atoms: _820  and  _822
REMARK  333  A    between atoms: _822  and  _823
REMARK  334  A    between atoms: _822  and  _825
REMARK  335  A    between atoms: _825  and  _826
REMARK  336  A    between atoms: _826  and  _827
REMARK  337  A    between atoms: _827  and  _828
REMARK  338  A    between atoms: _828  and  _829
REMARK  339  A    between atoms: _834  and  _835
REMARK  340  A    between atoms: _840  and  _842
REMARK  341  A    between atoms: _842  and  _843
REMARK  342  A    between atoms: _842  and  _845
REMARK  343  A    between atoms: _848  and  _850
REMARK  344  A    between atoms: _850  and  _851
REMARK  345  A    between atoms: _854  and  _856
REMARK  346  A    between atoms: _856  and  _857
REMARK  347  A    between atoms: _856  and  _859
REMARK  348  A    between atoms: _859  and  _860
REMARK  349  A    between atoms: _860  and  _861
REMARK  350  A    between atoms: _864  and  _866
REMARK  351  A    between atoms: _866  and  _867
REMARK  352  A    between atoms: _866  and  _869
REMARK  353  A    between atoms: _872  and  _874
REMARK  354  A    between atoms: _874  and  _875
REMARK  355  A    between atoms: _874  and  _877
REMARK  356  A    between atoms: _877  and  _878
REMARK  357  A    between atoms: _878  and  _879
REMARK  358  A    between atoms: _879  and  _880
REMARK                            x       y       z     vdW  Elec       q    Type
REMARK                         _______ _______ _______ _____ _____    ______ ____
ROOT
ATOM      1  O   HOH     1     -17.286   2.484 -34.717  0.00  0.00    +0.000 OA
ENDROOT
TORSDOF 0
REMARK  Name = ../refined-set-2016/4x8o/4x8o_pocket.pdb
REMARK  358 active torsions:
REMARK  status: ('A' for Active; 'I' for Inactive)
REMARK    1  A    between atoms: _1  and  _3
REMARK    2  A    between atoms: _3  and  _4
REMARK    3  A    between atoms: _3  and  _6
REMARK    4  A    between atoms: _6  and  _7
REMARK    5  A    between atoms: _10  and  _12
REMARK    6  A    between atoms: _12  and  _13
REMARK    7  A    between atoms: _12  and  _15
REMARK    8  A    between atoms: _15  and  _16
REMARK    9  A    between atoms: _19  and  _21
REMARK   10  A    between atoms: _21  and  _22
REMARK   11  A    between atoms: _24  and  _26
REMARK   12  A    between atoms: _26  and  _27
REMARK   13  A    between atoms: _31  and  _32
REMARK   14  A    between atoms: _37  and  _39
REMARK   15  A    between atoms: _39  and  _40
REMARK   16  A    between atoms: _42  and  _44
REMARK   17  A    between atoms: _44  and  _45
REMARK   18  A    between atoms: _48  and  _50
REMARK   19  A    between atoms: _50  and  _51
REMARK   20  A    between atoms: _53  and  _55
REMARK   21  A    between atoms: _55  and  _56
REMARK   22  A    between atoms: _55  and  _58
REMARK   23  A    between atoms: _58  and  _59
REMARK   24  A    between atoms: _59  and  _60
REMARK   25  A    between atoms: _60  and  _61
REMARK   26  A    between atoms: _61  and  _62
REMARK   27  A    between atoms: _66  and  _68
REMARK   28  A    between atoms: _68  and  _69
REMARK   29  A    between atoms: _71  and  _73
REMARK   30  A    between atoms: _73  and  _74
REMARK   31  A    between atoms: _73  and  _76
REMARK   32  A    between atoms: _76  and  _77
REMARK   33  A    between atoms: _80  and  _82
REMARK   34  A    between atoms: _82  and  _83
REMARK   35  A    between atoms: _82  and  _85
REMARK   36  A    between atoms: _85  and  _86
REMARK   37  A    between atoms: _86  and  _87
REMARK   38  A    between atoms: _92  and  _94
REMARK   39  A    between atoms: _94  and  _95
REMARK   40  A    between atoms: _98  and  _100
REMARK   41  A    between atoms: _100  and  _101
REMARK   42  A    between atoms: _100  and  _103
REMARK   43  A    between atoms: _103  and  _104
REMARK   44  A    between atoms: _104  and  _105
REMARK   45  A    between atoms: _110  and  _112
REMARK   46  A    between atoms: _112  and  _113
REMARK   47  A    between atoms: _112  and  _115
REMARK   48  A    between atoms: _115  and  _116
REMARK   49  A    between atoms: _122  and  _124
REMARK   50  A    between atoms: _124  and  _125
REMARK   51  A    between atoms: _124  and  _127
REMARK   52  A    between atoms: _127  and  _128
REMARK   53  A    between atoms: _128  and  _129
REMARK   54  A    between atoms: _134  and  _136
REMARK   55  A    between atoms: _136  and  _137
REMARK   56  A    between atoms: _136  and  _139
REMARK   57  A    between atoms: _139  and  _140
REMARK   58  A    between atoms: _142  and  _144
REMARK   59  A    between atoms: _144  and  _145
REMARK   60  A    between atoms: _144  and  _147
REMARK   61  A    between atoms: _147  and  _148
REMARK   62  A    between atoms: _151  and  _153
REMARK   63  A    between atoms: _153  and  _154
REMARK   64  A    between atoms: _156  and  _158
REMARK   65  A    between atoms: _158  and  _159
REMARK   66  A    between atoms: _158  and  _161
REMARK   67  A    between atoms: _161  and  _162
REMARK   68  A    between atoms: _165  and  _167
REMARK   69  A    between atoms: _167  and  _168
REMARK   70  A    between atoms: _167  and  _170
REMARK   71  A    between atoms: _170  and  _171
REMARK   72  A    between atoms: _171  and  _172
REMARK   73  A    between atoms: _174  and  _176
REMARK   74  A    between atoms: _176  and  _177
REMARK   75  A    between atoms: _176  and  _179
REMARK   76  A    between atoms: _179  and  _180
REMARK   77  A    between atoms: _183  and  _185
REMARK   78  A    between atoms: _185  and  _186
REMARK   79  A    between atoms: _185  and  _188
REMARK   80  A    between atoms: _188  and  _189
REMARK   81  A    between atoms: _189  and  _190
REMARK   82  A    between atoms: _190  and  _191
REMARK   83  A    between atoms: _200  and  _202
REMARK   84  A    between atoms: _202  and  _203
REMARK   85  A    between atoms: _206  and  _208
REMARK   86  A    between atoms: _208  and  _209
REMARK   87  A    between atoms: _208  and  _211
REMARK   88  A    between atoms: _211  and  _212
REMARK   89  A    between atoms: _212  and  _213
REMARK   90  A    between atoms: _213  and  _214
REMARK   91  A    between atoms: _214  and  _215
REMARK   92  A    between atoms: _219  and  _221
REMARK   93  A    between atoms: _221  and  _222
REMARK   94  A    between atoms: _221  and  _224
REMARK   95  A    between atoms: _224  and  _225
REMARK   96  A    between atoms: _228  and  _230
REMARK   97  A    between atoms: _230  and  _231
REMARK   98  A    between atoms: _230  and  _233
REMARK   99  A    between atoms: _233  and  _234
REMARK  100  A    between atoms: _237  and  _239
REMARK  101  A    between atoms: _239  and  _240
REMARK  102  A    between atoms: _239  and  _242
REMARK  103  A    between atoms: _242  and  _243
REMARK  104  A    between atoms: _243  and  _244
REMARK  105  A    between atoms: _246  and  _248
REMARK  106  A    between atoms: _248  and  _249
REMARK  107  A    between atoms: _248  and  _251
REMARK  108  A    between atoms: _251  and  _252
REMARK  109  A    between atoms: _255  and  _257
REMARK  110  A    between atoms: _257  and  _258
REMARK  111  A    between atoms: _261  and  _263
REMARK  112  A    between atoms: _263  and  _264
REMARK  113  A    between atoms: _266  and  _268
REMARK  114  A    between atoms: _268  and  _269
REMARK  115  A    between atoms: _268  and  _271
REMARK  116  A    between atoms: _271  and  _272
REMARK  117  A    between atoms: _272  and  _273
REMARK  118  A    between atoms: _273  and  _274
REMARK  119  A    between atoms: _274  and  _275
REMARK  120  A    between atoms: _279  and  _281
REMARK  121  A    between atoms: _281  and  _282
REMARK  122  A    between atoms: _281  and  _284
REMARK  123  A    between atoms: _284  and  _285
REMARK  124  A    between atoms: _288  and  _290
REMARK  125  A    between atoms: _290  and  _291
REMARK  126  A    between atoms: _290  and  _293
REMARK  127  A    between atoms: _296  and  _298
REMARK  128  A    between atoms: _298  and  _299
REMARK  129  A    between atoms: _298  and  _301
REMARK  130  A    between atoms: _301  and  _302
REMARK  131  A    between atoms: _305  and  _307
REMARK  132  A    between atoms: _307  and  _308
REMARK  133  A    between atoms: _307  and  _310
REMARK  134  A    between atoms: _310  and  _311
REMARK  135  A    between atoms: _314  and  _316
REMARK  136  A    between atoms: _316  and  _317
REMARK  137  A    between atoms: _316  and  _319
REMARK  138  A    between atoms: _319  and  _320
REMARK  139  A    between atoms: _320  and  _321
REMARK  140  A    between atoms: _324  and  _326
REMARK  141  A    between atoms: _326  and  _327
REMARK  142  A    between atoms: _326  and  _329
REMARK  143  A    between atoms: _329  and  _330
REMARK  144  A    between atoms: _333  and  _335
REMARK  145  A    between atoms: _335  and  _336
REMARK  146  A    between atoms: _335  and  _338
REMARK  147  A    between atoms: _341  and  _343
REMARK  148  A    between atoms: _343  and  _344
REMARK  149  A    between atoms: _343  and  _346
REMARK  150  A    between atoms: _346  and  _347
REMARK  151  A    between atoms: _350  and  _352
REMARK  152  A    between atoms: _352  and  _353
REMARK  153  A    between atoms: _352  and  _355
REMARK  154  A    between atoms: _358  and  _360
REMARK  155  A    between atoms: _360  and  _361
REMARK  156  A    between atoms: _360  and  _363
REMARK  157  A    between atoms: _363  and  _364
REMARK  158  A    between atoms: _367  and  _369
REMARK  159  A    between atoms: _369  and  _370
REMARK  160  A    between atoms: _372  and  _374
REMARK  161  A    between atoms: _374  and  _375
REMARK  162  A    between atoms: _374  and  _377
REMARK  163  A    between atoms: _377  and  _378
REMARK  164  A    between atoms: _385  and  _386
REMARK  165  A    between atoms: _391  and  _393
REMARK  166  A    between atoms: _393  and  _394
REMARK  167  A    between atoms: _393  and  _396
REMARK  168  A    between atoms: _396  and  _397
REMARK  169  A    between atoms: _397  and  _398
REMARK  170  A    between atoms: _398  and  _399
REMARK  171  A    between atoms: _408  and  _410
REMARK  172  A    between atoms: _410  and  _411
REMARK  173  A    between atoms: _410  and  _413
REMARK  174  A    between atoms: _413  and  _414
REMARK  175  A    between atoms: _417  and  _419
REMARK  176  A    between atoms: _419  and  _420
REMARK  177  A    between atoms: _419  and  _422
REMARK  178  A    between atoms: _422  and  _423
REMARK  179  A    between atoms: _423  and  _424
REMARK  180  A    between atoms: _429  and  _431
REMARK  181  A    between atoms: _431  and  _432
REMARK  182  A    between atoms: _431  and  _434
REMARK  183  A    between atoms: _434  and  _435
REMARK  184  A    between atoms: _441  and  _443
REMARK  185  A    between atoms: _443  and  _444
REMARK  186  A    between atoms: _443  and  _446
REMARK  187  A    between atoms: _449  and  _451
REMARK  188  A    between atoms: _451  and  _452
REMARK  189  A    between atoms: _451  and  _454
REMARK  190  A    between atoms: _454  and  _455
REMARK  191  A    between atoms: _458  and  _460
REMARK  192  A    between atoms: _460  and  _461
REMARK  193  A    between atoms: _460  and  _463
REMARK  194  A    between atoms: _463  and  _464
REMARK  195  A    between atoms: _467  and  _469
REMARK  196  A    between atoms: _469  and  _470
REMARK  197  A    between atoms: _469  and  _472
REMARK  198  A    between atoms: _475  and  _477
REMARK  199  A    between atoms: _477  and  _478
REMARK  200  A    between atoms: _477  and  _480
REMARK  201  A    between atoms: _480  and  _481
REMARK  202  A    between atoms: _484  and  _486
REMARK  203  A    between atoms: _486  and  _487
REMARK  204  A    between atoms: _486  and  _489
REMARK  205  A    between atoms: _489  and  _490
REMARK  206  A    between atoms: _490  and  _491
REMARK  207  A    between atoms: _491  and  _492
REMARK  208  A    between atoms: _501  and  _503
REMARK  209  A    between atoms: _503  and  _504
REMARK  210  A    between atoms: _503  and  _506
REMARK  211  A    between atoms: _506  and  _507
REMARK  212  A    between atoms: _510  and  _512
REMARK  213  A    between atoms: _512  and  _513
REMARK  214  A    between atoms: _512  and  _515
REMARK  215  A    between atoms: _518  and  _520
REMARK  216  A    between atoms: _520  and  _521
REMARK  217  A    between atoms: _523  and  _525
REMARK  218  A    between atoms: _525  and  _526
REMARK  219  A    between atoms: _525  and  _528
REMARK  220  A    between atoms: _528  and  _529
REMARK  221  A    between atoms: _529  and  _530
REMARK  222  A    between atoms: _530  and  _531
REMARK  223  A    between atoms: _540  and  _542
REMARK  224  A    between atoms: _542  and  _543
REMARK  225  A    between atoms: _542  and  _545
REMARK  226  A    between atoms: _545  and  _546
REMARK  227  A    between atoms: _546  and  _547
REMARK  228  A    between atoms: _547  and  _548
REMARK  229  A    between atoms: _557  and  _559
REMARK  230  A    between atoms: _559  and  _560
REMARK  231  A    between atoms: _559  and  _562
REMARK  232  A    between atoms: _565  and  _567
REMARK  233  A    between atoms: _567  and  _568
REMARK  234  A    between atoms: _570  and  _572
REMARK  235  A    between atoms: _572  and  _573
REMARK  236  A    between atoms: _572  and  _575
REMARK  237  A    between atoms: _575  and  _576
REMARK  238  A    between atoms: _576  and  _577
REMARK  239  A    between atoms: _577  and  _578
REMARK  240  A    between atoms: _587  and  _589
REMARK  241  A    between atoms: _589  and  _590
REMARK  242  A    between atoms: _589  and  _592
REMARK  243  A    between atoms: _595  and  _597
REMARK  244  A    between atoms: _597  and  _598
REMARK  245  A    between atoms: _597  and  _600
REMARK  246  A    between atoms: _600  and  _601
REMARK  247  A    between atoms: _606  and  _607
REMARK  248  A    between atoms: _609  and  _611
REMARK  249  A    between atoms: _611  and  _612
REMARK  250  A    between atoms: _611  and  _614
REMARK  251  A    between atoms: _614  and  _615
REMARK  252  A    between atoms: _620  and  _622
REMARK  253  A    between atoms: _622  and  _623
REMARK  254  A    between atoms: _622  and  _625
REMARK  255  A    between atoms: _628  and  _630
REMARK  256  A    between atoms: _630  and  _631
REMARK  257  A    between atoms: _630  and  _633
REMARK  258  A    between atoms: _633  and  _634
REMARK  259  A    between atoms: _634  and  _635
REMARK  260  A    between atoms: _635  and  _636
REMARK  261  A    between atoms: _636  and  _637
REMARK  262  A    between atoms: _641  and  _643
REMARK  263  A    between atoms: _643  and  _644
REMARK  264  A    between atoms: _643  and  _646
REMARK  265  A    between atoms: _646  and  _647
REMARK  266  A    between atoms: _653  and  _655
REMARK  267  A    between atoms: _655  and  _656
REMARK  268  A    between atoms: _655  and  _658
REMARK  269  A    between atoms: _658  and  _659
REMARK  270  A    between atoms: _665  and  _666
REMARK  271  A    between atoms: _671  and  _673
REMARK  272  A    between atoms: _673  and  _674
REMARK  273  A    between atoms: _673  and  _676
REMARK  274  A    between atoms: _676  and  _677
REMARK  275  A    between atoms: _677  and  _678
REMARK  276  A    between atoms: _678  and  _679
REMARK  277  A    between atoms: _688  and  _690
REMARK  278  A    between atoms: _690  and  _691
REMARK  279  A    between atoms: _690  and  _693
REMARK  280  A    between atoms: _693  and  _694
REMARK  281  A    between atoms: _697  and  _699
REMARK  282  A    between atoms: _699  and  _700
REMARK  283  A    between atoms: _699  and  _702
REMARK  284  A    between atoms: _702  and  _703
REMARK  285  A    between atoms: _706  and  _708
REMARK  286  A    between atoms: _708  and  _709
REMARK  287  A    between atoms: _708  and  _711
REMARK  288  A    between atoms: _711  and  _712
REMARK  289  A    between atoms: _715  and  _717
REMARK  290  A    between atoms: _717  and  _718
REMARK  291  A    between atoms: _717  and  _720
REMARK  292  A    between atoms: _723  and  _725
REMARK  293  A    between atoms: _725  and  _726
REMARK  294  A    between atoms: _725  and  _728
REMARK  295  A    between atoms: _728  and  _729
REMARK  296  A    between atoms: _729  and  _730
REMARK  297  A    between atoms: _730  and  _731
REMARK  298  A    between atoms: _731  and  _732
REMARK  299  A    between atoms: _736  and  _738
REMARK  300  A    between atoms: _738  and  _739
REMARK  301  A    between atoms: _738  and  _741
REMARK  302  A    between atoms: _741  and  _742
REMARK  303  A    between atoms: _742  and  _743
REMARK  304  A    between atoms: _743  and  _744
REMARK  305  A    between atoms: _753  and  _755
REMARK  306  A    between atoms: _755  and  _756
REMARK  307  A    between atoms: _755  and  _758
REMARK  308  A    between atoms: _758  and  _759
REMARK  309  A    between atoms: _762  and  _764
REMARK  310  A    between atoms: _764  and  _765
REMARK  311  A    between atoms: _764  and  _767
REMARK  312  A    between atoms: _767  and  _768
REMARK  313  A    between atoms: _768  and  _769
REMARK  314  A    between atoms: _772  and  _774
REMARK  315  A    between atoms: _774  and  _775
REMARK  316  A    between atoms: _774  and  _777
REMARK  317  A    between atoms: _777  and  _778
REMARK  318  A    between atoms: _788  and  _790
REMARK  319  A    between atoms: _790  and  _791
REMARK  320  A    between atoms: _790  and  _793
REMARK  321  A    between atoms: _793  and  _794
REMARK  322  A    between atoms: _797  and  _799
REMARK  323  A    between atoms: _799  and  _800
REMARK  324  A    between atoms: _799  and  _802
REMARK  325  A    between atoms: _802  and  _803
REMARK  326  A    between atoms: _806  and  _808
REMARK  327  A    between atoms: _808  and  _809
REMARK  328  A    between atoms: _811  and  _813
REMARK  329  A    between atoms: _813  and  _814
REMARK  330  A    between atoms: _813  and  _816
REMARK  331  A    between atoms: _816  and  _817
REMARK  332  A    between atoms: _820  and  _822
REMARK  333  A    between atoms: _822  and  _823
REMARK  334  A    between atoms: _822  and  _825
REMARK  335  A    between atoms: _825  and  _826
REMARK  336  A    between atoms: _826  and  _827
REMARK  337  A    between atoms: _827  and  _828
REMARK  338  A    between atoms: _828  and  _829
REMARK  339  A    between atoms: _834  and  _835
REMARK  340  A    between atoms: _840  and  _842
REMARK  341  A    between atoms: _842  and  _843
REMARK  342  A    between atoms: _842  and  _845
REMARK  343  A    between atoms: _848  and  _850
REMARK  344  A    between atoms: _850  and  _851
REMARK  345  A    between atoms: _854  and  _856
REMARK  346  A    between atoms: _856  and  _857
REMARK  347  A    between atoms: _856  and  _859
REMARK  348  A    between atoms: _859  and  _860
REMARK  349  A    between atoms: _860  and  _861
REMARK  350  A    between atoms: _864  and  _866
REMARK  351  A    between atoms: _866  and  _867
REMARK  352  A    between atoms: _866  and  _869
REMARK  353  A    between atoms: _872  and  _874
REMARK  354  A    between atoms: _874  and  _875
REMARK  355  A    between atoms: _874  and  _877
REMARK  356  A    between atoms: _877  and  _878
REMARK  357  A    between atoms: _878  and  _879
REMARK  358  A    between atoms: _879  and  _880
REMARK                            x       y       z     vdW  Elec       q    Type
REMARK                         _______ _______ _______ _____ _____    ______ ____
ROOT
ATOM      1  O   HOH     1     -26.210  32.359 -43.320  0.00  0.00    +0.000 OA
ENDROOT
TORSDOF 0
REMARK  Name = ../refined-set-2016/4x8o/4x8o_pocket.pdb
REMARK  358 active torsions:
REMARK  status: ('A' for Active; 'I' for Inactive)
REMARK    1  A    between atoms: _1  and  _3
REMARK    2  A    between atoms: _3  and  _4
REMARK    3  A    between atoms: _3  and  _6
REMARK    4  A    between atoms: _6  and  _7
REMARK    5  A    between atoms: _10  and  _12
REMARK    6  A    between atoms: _12  and  _13
REMARK    7  A    between atoms: _12  and  _15
REMARK    8  A    between atoms: _15  and  _16
REMARK    9  A    between atoms: _19  and  _21
REMARK   10  A    between atoms: _21  and  _22
REMARK   11  A    between atoms: _24  and  _26
REMARK   12  A    between atoms: _26  and  _27
REMARK   13  A    between atoms: _31  and  _32
REMARK   14  A    between atoms: _37  and  _39
REMARK   15  A    between atoms: _39  and  _40
REMARK   16  A    between atoms: _42  and  _44
REMARK   17  A    between atoms: _44  and  _45
REMARK   18  A    between atoms: _48  and  _50
REMARK   19  A    between atoms: _50  and  _51
REMARK   20  A    between atoms: _53  and  _55
REMARK   21  A    between atoms: _55  and  _56
REMARK   22  A    between atoms: _55  and  _58
REMARK   23  A    between atoms: _58  and  _59
REMARK   24  A    between atoms: _59  and  _60
REMARK   25  A    between atoms: _60  and  _61
REMARK   26  A    between atoms: _61  and  _62
REMARK   27  A    between atoms: _66  and  _68
REMARK   28  A    between atoms: _68  and  _69
REMARK   29  A    between atoms: _71  and  _73
REMARK   30  A    between atoms: _73  and  _74
REMARK   31  A    between atoms: _73  and  _76
REMARK   32  A    between atoms: _76  and  _77
REMARK   33  A    between atoms: _80  and  _82
REMARK   34  A    between atoms: _82  and  _83
REMARK   35  A    between atoms: _82  and  _85
REMARK   36  A    between atoms: _85  and  _86
REMARK   37  A    between atoms: _86  and  _87
REMARK   38  A    between atoms: _92  and  _94
REMARK   39  A    between atoms: _94  and  _95
REMARK   40  A    between atoms: _98  and  _100
REMARK   41  A    between atoms: _100  and  _101
REMARK   42  A    between atoms: _100  and  _103
REMARK   43  A    between atoms: _103  and  _104
REMARK   44  A    between atoms: _104  and  _105
REMARK   45  A    between atoms: _110  and  _112
REMARK   46  A    between atoms: _112  and  _113
REMARK   47  A    between atoms: _112  and  _115
REMARK   48  A    between atoms: _115  and  _116
REMARK   49  A    between atoms: _122  and  _124
REMARK   50  A    between atoms: _124  and  _125
REMARK   51  A    between atoms: _124  and  _127
REMARK   52  A    between atoms: _127  and  _128
REMARK   53  A    between atoms: _128  and  _129
REMARK   54  A    between atoms: _134  and  _136
REMARK   55  A    between atoms: _136  and  _137
REMARK   56  A    between atoms: _136  and  _139
REMARK   57  A    between atoms: _139  and  _140
REMARK   58  A    between atoms: _142  and  _144
REMARK   59  A    between atoms: _144  and  _145
REMARK   60  A    between atoms: _144  and  _147
REMARK   61  A    between atoms: _147  and  _148
REMARK   62  A    between atoms: _151  and  _153
REMARK   63  A    between atoms: _153  and  _154
REMARK   64  A    between atoms: _156  and  _158
REMARK   65  A    between atoms: _158  and  _159
REMARK   66  A    between atoms: _158  and  _161
REMARK   67  A    between atoms: _161  and  _162
REMARK   68  A    between atoms: _165  and  _167
REMARK   69  A    between atoms: _167  and  _168
REMARK   70  A    between atoms: _167  and  _170
REMARK   71  A    between atoms: _170  and  _171
REMARK   72  A    between atoms: _171  and  _172
REMARK   73  A    between atoms: _174  and  _176
REMARK   74  A    between atoms: _176  and  _177
REMARK   75  A    between atoms: _176  and  _179
REMARK   76  A    between atoms: _179  and  _180
REMARK   77  A    between atoms: _183  and  _185
REMARK   78  A    between atoms: _185  and  _186
REMARK   79  A    between atoms: _185  and  _188
REMARK   80  A    between atoms: _188  and  _189
REMARK   81  A    between atoms: _189  and  _190
REMARK   82  A    between atoms: _190  and  _191
REMARK   83  A    between atoms: _200  and  _202
REMARK   84  A    between atoms: _202  and  _203
REMARK   85  A    between atoms: _206  and  _208
REMARK   86  A    between atoms: _208  and  _209
REMARK   87  A    between atoms: _208  and  _211
REMARK   88  A    between atoms: _211  and  _212
REMARK   89  A    between atoms: _212  and  _213
REMARK   90  A    between atoms: _213  and  _214
REMARK   91  A    between atoms: _214  and  _215
REMARK   92  A    between atoms: _219  and  _221
REMARK   93  A    between atoms: _221  and  _222
REMARK   94  A    between atoms: _221  and  _224
REMARK   95  A    between atoms: _224  and  _225
REMARK   96  A    between atoms: _228  and  _230
REMARK   97  A    between atoms: _230  and  _231
REMARK   98  A    between atoms: _230  and  _233
REMARK   99  A    between atoms: _233  and  _234
REMARK  100  A    between atoms: _237  and  _239
REMARK  101  A    between atoms: _239  and  _240
REMARK  102  A    between atoms: _239  and  _242
REMARK  103  A    between atoms: _242  and  _243
REMARK  104  A    between atoms: _243  and  _244
REMARK  105  A    between atoms: _246  and  _248
REMARK  106  A    between atoms: _248  and  _249
REMARK  107  A    between atoms: _248  and  _251
REMARK  108  A    between atoms: _251  and  _252
REMARK  109  A    between atoms: _255  and  _257
REMARK  110  A    between atoms: _257  and  _258
REMARK  111  A    between atoms: _261  and  _263
REMARK  112  A    between atoms: _263  and  _264
REMARK  113  A    between atoms: _266  and  _268
REMARK  114  A    between atoms: _268  and  _269
REMARK  115  A    between atoms: _268  and  _271
REMARK  116  A    between atoms: _271  and  _272
REMARK  117  A    between atoms: _272  and  _273
REMARK  118  A    between atoms: _273  and  _274
REMARK  119  A    between atoms: _274  and  _275
REMARK  120  A    between atoms: _279  and  _281
REMARK  121  A    between atoms: _281  and  _282
REMARK  122  A    between atoms: _281  and  _284
REMARK  123  A    between atoms: _284  and  _285
REMARK  124  A    between atoms: _288  and  _290
REMARK  125  A    between atoms: _290  and  _291
REMARK  126  A    between atoms: _290  and  _293
REMARK  127  A    between atoms: _296  and  _298
REMARK  128  A    between atoms: _298  and  _299
REMARK  129  A    between atoms: _298  and  _301
REMARK  130  A    between atoms: _301  and  _302
REMARK  131  A    between atoms: _305  and  _307
REMARK  132  A    between atoms: _307  and  _308
REMARK  133  A    between atoms: _307  and  _310
REMARK  134  A    between atoms: _310  and  _311
REMARK  135  A    between atoms: _314  and  _316
REMARK  136  A    between atoms: _316  and  _317
REMARK  137  A    between atoms: _316  and  _319
REMARK  138  A    between atoms: _319  and  _320
REMARK  139  A    between atoms: _320  and  _321
REMARK  140  A    between atoms: _324  and  _326
REMARK  141  A    between atoms: _326  and  _327
REMARK  142  A    between atoms: _326  and  _329
REMARK  143  A    between atoms: _329  and  _330
REMARK  144  A    between atoms: _333  and  _335
REMARK  145  A    between atoms: _335  and  _336
REMARK  146  A    between atoms: _335  and  _338
REMARK  147  A    between atoms: _341  and  _343
REMARK  148  A    between atoms: _343  and  _344
REMARK  149  A    between atoms: _343  and  _346
REMARK  150  A    between atoms: _346  and  _347
REMARK  151  A    between atoms: _350  and  _352
REMARK  152  A    between atoms: _352  and  _353
REMARK  153  A    between atoms: _352  and  _355
REMARK  154  A    between atoms: _358  and  _360
REMARK  155  A    between atoms: _360  and  _361
REMARK  156  A    between atoms: _360  and  _363
REMARK  157  A    between atoms: _363  and  _364
REMARK  158  A    between atoms: _367  and  _369
REMARK  159  A    between atoms: _369  and  _370
REMARK  160  A    between atoms: _372  and  _374
REMARK  161  A    between atoms: _374  and  _375
REMARK  162  A    between atoms: _374  and  _377
REMARK  163  A    between atoms: _377  and  _378
REMARK  164  A    between atoms: _385  and  _386
REMARK  165  A    between atoms: _391  and  _393
REMARK  166  A    between atoms: _393  and  _394
REMARK  167  A    between atoms: _393  and  _396
REMARK  168  A    between atoms: _396  and  _397
REMARK  169  A    between atoms: _397  and  _398
REMARK  170  A    between atoms: _398  and  _399
REMARK  171  A    between atoms: _408  and  _410
REMARK  172  A    between atoms: _410  and  _411
REMARK  173  A    between atoms: _410  and  _413
REMARK  174  A    between atoms: _413  and  _414
REMARK  175  A    between atoms: _417  and  _419
REMARK  176  A    between atoms: _419  and  _420
REMARK  177  A    between atoms: _419  and  _422
REMARK  178  A    between atoms: _422  and  _423
REMARK  179  A    between atoms: _423  and  _424
REMARK  180  A    between atoms: _429  and  _431
REMARK  181  A    between atoms: _431  and  _432
REMARK  182  A    between atoms: _431  and  _434
REMARK  183  A    between atoms: _434  and  _435
REMARK  184  A    between atoms: _441  and  _443
REMARK  185  A    between atoms: _443  and  _444
REMARK  186  A    between atoms: _443  and  _446
REMARK  187  A    between atoms: _449  and  _451
REMARK  188  A    between atoms: _451  and  _452
REMARK  189  A    between atoms: _451  and  _454
REMARK  190  A    between atoms: _454  and  _455
REMARK  191  A    between atoms: _458  and  _460
REMARK  192  A    between atoms: _460  and  _461
REMARK  193  A    between atoms: _460  and  _463
REMARK  194  A    between atoms: _463  and  _464
REMARK  195  A    between atoms: _467  and  _469
REMARK  196  A    between atoms: _469  and  _470
REMARK  197  A    between atoms: _469  and  _472
REMARK  198  A    between atoms: _475  and  _477
REMARK  199  A    between atoms: _477  and  _478
REMARK  200  A    between atoms: _477  and  _480
REMARK  201  A    between atoms: _480  and  _481
REMARK  202  A    between atoms: _484  and  _486
REMARK  203  A    between atoms: _486  and  _487
REMARK  204  A    between atoms: _486  and  _489
REMARK  205  A    between atoms: _489  and  _490
REMARK  206  A    between atoms: _490  and  _491
REMARK  207  A    between atoms: _491  and  _492
REMARK  208  A    between atoms: _501  and  _503
REMARK  209  A    between atoms: _503  and  _504
REMARK  210  A    between atoms: _503  and  _506
REMARK  211  A    between atoms: _506  and  _507
REMARK  212  A    between atoms: _510  and  _512
REMARK  213  A    between atoms: _512  and  _513
REMARK  214  A    between atoms: _512  and  _515
REMARK  215  A    between atoms: _518  and  _520
REMARK  216  A    between atoms: _520  and  _521
REMARK  217  A    between atoms: _523  and  _525
REMARK  218  A    between atoms: _525  and  _526
REMARK  219  A    between atoms: _525  and  _528
REMARK  220  A    between atoms: _528  and  _529
REMARK  221  A    between atoms: _529  and  _530
REMARK  222  A    between atoms: _530  and  _531
REMARK  223  A    between atoms: _540  and  _542
REMARK  224  A    between atoms: _542  and  _543
REMARK  225  A    between atoms: _542  and  _545
REMARK  226  A    between atoms: _545  and  _546
REMARK  227  A    between atoms: _546  and  _547
REMARK  228  A    between atoms: _547  and  _548
REMARK  229  A    between atoms: _557  and  _559
REMARK  230  A    between atoms: _559  and  _560
REMARK  231  A    between atoms: _559  and  _562
REMARK  232  A    between atoms: _565  and  _567
REMARK  233  A    between atoms: _567  and  _568
REMARK  234  A    between atoms: _570  and  _572
REMARK  235  A    between atoms: _572  and  _573
REMARK  236  A    between atoms: _572  and  _575
REMARK  237  A    between atoms: _575  and  _576
REMARK  238  A    between atoms: _576  and  _577
REMARK  239  A    between atoms: _577  and  _578
REMARK  240  A    between atoms: _587  and  _589
REMARK  241  A    between atoms: _589  and  _590
REMARK  242  A    between atoms: _589  and  _592
REMARK  243  A    between atoms: _595  and  _597
REMARK  244  A    between atoms: _597  and  _598
REMARK  245  A    between atoms: _597  and  _600
REMARK  246  A    between atoms: _600  and  _601
REMARK  247  A    between atoms: _606  and  _607
REMARK  248  A    between atoms: _609  and  _611
REMARK  249  A    between atoms: _611  and  _612
REMARK  250  A    between atoms: _611  and  _614
REMARK  251  A    between atoms: _614  and  _615
REMARK  252  A    between atoms: _620  and  _622
REMARK  253  A    between atoms: _622  and  _623
REMARK  254  A    between atoms: _622  and  _625
REMARK  255  A    between atoms: _628  and  _630
REMARK  256  A    between atoms: _630  and  _631
REMARK  257  A    between atoms: _630  and  _633
REMARK  258  A    between atoms: _633  and  _634
REMARK  259  A    between atoms: _634  and  _635
REMARK  260  A    between atoms: _635  and  _636
REMARK  261  A    between atoms: _636  and  _637
REMARK  262  A    between atoms: _641  and  _643
REMARK  263  A    between atoms: _643  and  _644
REMARK  264  A    between atoms: _643  and  _646
REMARK  265  A    between atoms: _646  and  _647
REMARK  266  A    between atoms: _653  and  _655
REMARK  267  A    between atoms: _655  and  _656
REMARK  268  A    between atoms: _655  and  _658
REMARK  269  A    between atoms: _658  and  _659
REMARK  270  A    between atoms: _665  and  _666
REMARK  271  A    between atoms: _671  and  _673
REMARK  272  A    between atoms: _673  and  _674
REMARK  273  A    between atoms: _673  and  _676
REMARK  274  A    between atoms: _676  and  _677
REMARK  275  A    between atoms: _677  and  _678
REMARK  276  A    between atoms: _678  and  _679
REMARK  277  A    between atoms: _688  and  _690
REMARK  278  A    between atoms: _690  and  _691
REMARK  279  A    between atoms: _690  and  _693
REMARK  280  A    between atoms: _693  and  _694
REMARK  281  A    between atoms: _697  and  _699
REMARK  282  A    between atoms: _699  and  _700
REMARK  283  A    between atoms: _699  and  _702
REMARK  284  A    between atoms: _702  and  _703
REMARK  285  A    between atoms: _706  and  _708
REMARK  286  A    between atoms: _708  and  _709
REMARK  287  A    between atoms: _708  and  _711
REMARK  288  A    between atoms: _711  and  _712
REMARK  289  A    between atoms: _715  and  _717
REMARK  290  A    between atoms: _717  and  _718
REMARK  291  A    between atoms: _717  and  _720
REMARK  292  A    between atoms: _723  and  _725
REMARK  293  A    between atoms: _725  and  _726
REMARK  294  A    between atoms: _725  and  _728
REMARK  295  A    between atoms: _728  and  _729
REMARK  296  A    between atoms: _729  and  _730
REMARK  297  A    between atoms: _730  and  _731
REMARK  298  A    between atoms: _731  and  _732
REMARK  299  A    between atoms: _736  and  _738
REMARK  300  A    between atoms: _738  and  _739
REMARK  301  A    between atoms: _738  and  _741
REMARK  302  A    between atoms: _741  and  _742
REMARK  303  A    between atoms: _742  and  _743
REMARK  304  A    between atoms: _743  and  _744
REMARK  305  A    between atoms: _753  and  _755
REMARK  306  A    between atoms: _755  and  _756
REMARK  307  A    between atoms: _755  and  _758
REMARK  308  A    between atoms: _758  and  _759
REMARK  309  A    between atoms: _762  and  _764
REMARK  310  A    between atoms: _764  and  _765
REMARK  311  A    between atoms: _764  and  _767
REMARK  312  A    between atoms: _767  and  _768
REMARK  313  A    between atoms: _768  and  _769
REMARK  314  A    between atoms: _772  and  _774
REMARK  315  A    between atoms: _774  and  _775
REMARK  316  A    between atoms: _774  and  _777
REMARK  317  A    between atoms: _777  and  _778
REMARK  318  A    between atoms: _788  and  _790
REMARK  319  A    between atoms: _790  and  _791
REMARK  320  A    between atoms: _790  and  _793
REMARK  321  A    between atoms: _793  and  _794
REMARK  322  A    between atoms: _797  and  _799
REMARK  323  A    between atoms: _799  and  _800
REMARK  324  A    between atoms: _799  and  _802
REMARK  325  A    between atoms: _802  and  _803
REMARK  326  A    between atoms: _806  and  _808
REMARK  327  A    between atoms: _808  and  _809
REMARK  328  A    between atoms: _811  and  _813
REMARK  329  A    between atoms: _813  and  _814
REMARK  330  A    between atoms: _813  and  _816
REMARK  331  A    between atoms: _816  and  _817
REMARK  332  A    between atoms: _820  and  _822
REMARK  333  A    between atoms: _822  and  _823
REMARK  334  A    between atoms: _822  and  _825
REMARK  335  A    between atoms: _825  and  _826
REMARK  336  A    between atoms: _826  and  _827
REMARK  337  A    between atoms: _827  and  _828
REMARK  338  A    between atoms: _828  and  _829
REMARK  339  A    between atoms: _834  and  _835
REMARK  340  A    between atoms: _840  and  _842
REMARK  341  A    between atoms: _842  and  _843
REMARK  342  A    between atoms: _842  and  _845
REMARK  343  A    between atoms: _848  and  _850
REMARK  344  A    between atoms: _850  and  _851
REMARK  345  A    between atoms: _854  and  _856
REMARK  346  A    between atoms: _856  and  _857
REMARK  347  A    between atoms: _856  and  _859
REMARK  348  A    between atoms: _859  and  _860
REMARK  349  A    between atoms: _860  and  _861
REMARK  350  A    between atoms: _864  and  _866
REMARK  351  A    between atoms: _866  and  _867
REMARK  352  A    between atoms: _866  and  _869
REMARK  353  A    between atoms: _872  and  _874
REMARK  354  A    between atoms: _874  and  _875
REMARK  355  A    between atoms: _874  and  _877
REMARK  356  A    between atoms: _877  and  _878
REMARK  357  A    between atoms: _878  and  _879
REMARK  358  A    between atoms: _879  and  _880
REMARK                            x       y       z     vdW  Elec       q    Type
REMARK                         _______ _______ _______ _____ _____    ______ ____
ROOT
ATOM      1  O   HOH     1     -17.336   1.016 -32.430  0.00  0.00    +0.000 OA
ENDROOT
TORSDOF 0
REMARK  Name = ../refined-set-2016/4x8o/4x8o_pocket.pdb
REMARK  358 active torsions:
REMARK  status: ('A' for Active; 'I' for Inactive)
REMARK    1  A    between atoms: _1  and  _3
REMARK    2  A    between atoms: _3  and  _4
REMARK    3  A    between atoms: _3  and  _6
REMARK    4  A    between atoms: _6  and  _7
REMARK    5  A    between atoms: _10  and  _12
REMARK    6  A    between atoms: _12  and  _13
REMARK    7  A    between atoms: _12  and  _15
REMARK    8  A    between atoms: _15  and  _16
REMARK    9  A    between atoms: _19  and  _21
REMARK   10  A    between atoms: _21  and  _22
REMARK   11  A    between atoms: _24  and  _26
REMARK   12  A    between atoms: _26  and  _27
REMARK   13  A    between atoms: _31  and  _32
REMARK   14  A    between atoms: _37  and  _39
REMARK   15  A    between atoms: _39  and  _40
REMARK   16  A    between atoms: _42  and  _44
REMARK   17  A    between atoms: _44  and  _45
REMARK   18  A    between atoms: _48  and  _50
REMARK   19  A    between atoms: _50  and  _51
REMARK   20  A    between atoms: _53  and  _55
REMARK   21  A    between atoms: _55  and  _56
REMARK   22  A    between atoms: _55  and  _58
REMARK   23  A    between atoms: _58  and  _59
REMARK   24  A    between atoms: _59  and  _60
REMARK   25  A    between atoms: _60  and  _61
REMARK   26  A    between atoms: _61  and  _62
REMARK   27  A    between atoms: _66  and  _68
REMARK   28  A    between atoms: _68  and  _69
REMARK   29  A    between atoms: _71  and  _73
REMARK   30  A    between atoms: _73  and  _74
REMARK   31  A    between atoms: _73  and  _76
REMARK   32  A    between atoms: _76  and  _77
REMARK   33  A    between atoms: _80  and  _82
REMARK   34  A    between atoms: _82  and  _83
REMARK   35  A    between atoms: _82  and  _85
REMARK   36  A    between atoms: _85  and  _86
REMARK   37  A    between atoms: _86  and  _87
REMARK   38  A    between atoms: _92  and  _94
REMARK   39  A    between atoms: _94  and  _95
REMARK   40  A    between atoms: _98  and  _100
REMARK   41  A    between atoms: _100  and  _101
REMARK   42  A    between atoms: _100  and  _103
REMARK   43  A    between atoms: _103  and  _104
REMARK   44  A    between atoms: _104  and  _105
REMARK   45  A    between atoms: _110  and  _112
REMARK   46  A    between atoms: _112  and  _113
REMARK   47  A    between atoms: _112  and  _115
REMARK   48  A    between atoms: _115  and  _116
REMARK   49  A    between atoms: _122  and  _124
REMARK   50  A    between atoms: _124  and  _125
REMARK   51  A    between atoms: _124  and  _127
REMARK   52  A    between atoms: _127  and  _128
REMARK   53  A    between atoms: _128  and  _129
REMARK   54  A    between atoms: _134  and  _136
REMARK   55  A    between atoms: _136  and  _137
REMARK   56  A    between atoms: _136  and  _139
REMARK   57  A    between atoms: _139  and  _140
REMARK   58  A    between atoms: _142  and  _144
REMARK   59  A    between atoms: _144  and  _145
REMARK   60  A    between atoms: _144  and  _147
REMARK   61  A    between atoms: _147  and  _148
REMARK   62  A    between atoms: _151  and  _153
REMARK   63  A    between atoms: _153  and  _154
REMARK   64  A    between atoms: _156  and  _158
REMARK   65  A    between atoms: _158  and  _159
REMARK   66  A    between atoms: _158  and  _161
REMARK   67  A    between atoms: _161  and  _162
REMARK   68  A    between atoms: _165  and  _167
REMARK   69  A    between atoms: _167  and  _168
REMARK   70  A    between atoms: _167  and  _170
REMARK   71  A    between atoms: _170  and  _171
REMARK   72  A    between atoms: _171  and  _172
REMARK   73  A    between atoms: _174  and  _176
REMARK   74  A    between atoms: _176  and  _177
REMARK   75  A    between atoms: _176  and  _179
REMARK   76  A    between atoms: _179  and  _180
REMARK   77  A    between atoms: _183  and  _185
REMARK   78  A    between atoms: _185  and  _186
REMARK   79  A    between atoms: _185  and  _188
REMARK   80  A    between atoms: _188  and  _189
REMARK   81  A    between atoms: _189  and  _190
REMARK   82  A    between atoms: _190  and  _191
REMARK   83  A    between atoms: _200  and  _202
REMARK   84  A    between atoms: _202  and  _203
REMARK   85  A    between atoms: _206  and  _208
REMARK   86  A    between atoms: _208  and  _209
REMARK   87  A    between atoms: _208  and  _211
REMARK   88  A    between atoms: _211  and  _212
REMARK   89  A    between atoms: _212  and  _213
REMARK   90  A    between atoms: _213  and  _214
REMARK   91  A    between atoms: _214  and  _215
REMARK   92  A    between atoms: _219  and  _221
REMARK   93  A    between atoms: _221  and  _222
REMARK   94  A    between atoms: _221  and  _224
REMARK   95  A    between atoms: _224  and  _225
REMARK   96  A    between atoms: _228  and  _230
REMARK   97  A    between atoms: _230  and  _231
REMARK   98  A    between atoms: _230  and  _233
REMARK   99  A    between atoms: _233  and  _234
REMARK  100  A    between atoms: _237  and  _239
REMARK  101  A    between atoms: _239  and  _240
REMARK  102  A    between atoms: _239  and  _242
REMARK  103  A    between atoms: _242  and  _243
REMARK  104  A    between atoms: _243  and  _244
REMARK  105  A    between atoms: _246  and  _248
REMARK  106  A    between atoms: _248  and  _249
REMARK  107  A    between atoms: _248  and  _251
REMARK  108  A    between atoms: _251  and  _252
REMARK  109  A    between atoms: _255  and  _257
REMARK  110  A    between atoms: _257  and  _258
REMARK  111  A    between atoms: _261  and  _263
REMARK  112  A    between atoms: _263  and  _264
REMARK  113  A    between atoms: _266  and  _268
REMARK  114  A    between atoms: _268  and  _269
REMARK  115  A    between atoms: _268  and  _271
REMARK  116  A    between atoms: _271  and  _272
REMARK  117  A    between atoms: _272  and  _273
REMARK  118  A    between atoms: _273  and  _274
REMARK  119  A    between atoms: _274  and  _275
REMARK  120  A    between atoms: _279  and  _281
REMARK  121  A    between atoms: _281  and  _282
REMARK  122  A    between atoms: _281  and  _284
REMARK  123  A    between atoms: _284  and  _285
REMARK  124  A    between atoms: _288  and  _290
REMARK  125  A    between atoms: _290  and  _291
REMARK  126  A    between atoms: _290  and  _293
REMARK  127  A    between atoms: _296  and  _298
REMARK  128  A    between atoms: _298  and  _299
REMARK  129  A    between atoms: _298  and  _301
REMARK  130  A    between atoms: _301  and  _302
REMARK  131  A    between atoms: _305  and  _307
REMARK  132  A    between atoms: _307  and  _308
REMARK  133  A    between atoms: _307  and  _310
REMARK  134  A    between atoms: _310  and  _311
REMARK  135  A    between atoms: _314  and  _316
REMARK  136  A    between atoms: _316  and  _317
REMARK  137  A    between atoms: _316  and  _319
REMARK  138  A    between atoms: _319  and  _320
REMARK  139  A    between atoms: _320  and  _321
REMARK  140  A    between atoms: _324  and  _326
REMARK  141  A    between atoms: _326  and  _327
REMARK  142  A    between atoms: _326  and  _329
REMARK  143  A    between atoms: _329  and  _330
REMARK  144  A    between atoms: _333  and  _335
REMARK  145  A    between atoms: _335  and  _336
REMARK  146  A    between atoms: _335  and  _338
REMARK  147  A    between atoms: _341  and  _343
REMARK  148  A    between atoms: _343  and  _344
REMARK  149  A    between atoms: _343  and  _346
REMARK  150  A    between atoms: _346  and  _347
REMARK  151  A    between atoms: _350  and  _352
REMARK  152  A    between atoms: _352  and  _353
REMARK  153  A    between atoms: _352  and  _355
REMARK  154  A    between atoms: _358  and  _360
REMARK  155  A    between atoms: _360  and  _361
REMARK  156  A    between atoms: _360  and  _363
REMARK  157  A    between atoms: _363  and  _364
REMARK  158  A    between atoms: _367  and  _369
REMARK  159  A    between atoms: _369  and  _370
REMARK  160  A    between atoms: _372  and  _374
REMARK  161  A    between atoms: _374  and  _375
REMARK  162  A    between atoms: _374  and  _377
REMARK  163  A    between atoms: _377  and  _378
REMARK  164  A    between atoms: _385  and  _386
REMARK  165  A    between atoms: _391  and  _393
REMARK  166  A    between atoms: _393  and  _394
REMARK  167  A    between atoms: _393  and  _396
REMARK  168  A    between atoms: _396  and  _397
REMARK  169  A    between atoms: _397  and  _398
REMARK  170  A    between atoms: _398  and  _399
REMARK  171  A    between atoms: _408  and  _410
REMARK  172  A    between atoms: _410  and  _411
REMARK  173  A    between atoms: _410  and  _413
REMARK  174  A    between atoms: _413  and  _414
REMARK  175  A    between atoms: _417  and  _419
REMARK  176  A    between atoms: _419  and  _420
REMARK  177  A    between atoms: _419  and  _422
REMARK  178  A    between atoms: _422  and  _423
REMARK  179  A    between atoms: _423  and  _424
REMARK  180  A    between atoms: _429  and  _431
REMARK  181  A    between atoms: _431  and  _432
REMARK  182  A    between atoms: _431  and  _434
REMARK  183  A    between atoms: _434  and  _435
REMARK  184  A    between atoms: _441  and  _443
REMARK  185  A    between atoms: _443  and  _444
REMARK  186  A    between atoms: _443  and  _446
REMARK  187  A    between atoms: _449  and  _451
REMARK  188  A    between atoms: _451  and  _452
REMARK  189  A    between atoms: _451  and  _454
REMARK  190  A    between atoms: _454  and  _455
REMARK  191  A    between atoms: _458  and  _460
REMARK  192  A    between atoms: _460  and  _461
REMARK  193  A    between atoms: _460  and  _463
REMARK  194  A    between atoms: _463  and  _464
REMARK  195  A    between atoms: _467  and  _469
REMARK  196  A    between atoms: _469  and  _470
REMARK  197  A    between atoms: _469  and  _472
REMARK  198  A    between atoms: _475  and  _477
REMARK  199  A    between atoms: _477  and  _478
REMARK  200  A    between atoms: _477  and  _480
REMARK  201  A    between atoms: _480  and  _481
REMARK  202  A    between atoms: _484  and  _486
REMARK  203  A    between atoms: _486  and  _487
REMARK  204  A    between atoms: _486  and  _489
REMARK  205  A    between atoms: _489  and  _490
REMARK  206  A    between atoms: _490  and  _491
REMARK  207  A    between atoms: _491  and  _492
REMARK  208  A    between atoms: _501  and  _503
REMARK  209  A    between atoms: _503  and  _504
REMARK  210  A    between atoms: _503  and  _506
REMARK  211  A    between atoms: _506  and  _507
REMARK  212  A    between atoms: _510  and  _512
REMARK  213  A    between atoms: _512  and  _513
REMARK  214  A    between atoms: _512  and  _515
REMARK  215  A    between atoms: _518  and  _520
REMARK  216  A    between atoms: _520  and  _521
REMARK  217  A    between atoms: _523  and  _525
REMARK  218  A    between atoms: _525  and  _526
REMARK  219  A    between atoms: _525  and  _528
REMARK  220  A    between atoms: _528  and  _529
REMARK  221  A    between atoms: _529  and  _530
REMARK  222  A    between atoms: _530  and  _531
REMARK  223  A    between atoms: _540  and  _542
REMARK  224  A    between atoms: _542  and  _543
REMARK  225  A    between atoms: _542  and  _545
REMARK  226  A    between atoms: _545  and  _546
REMARK  227  A    between atoms: _546  and  _547
REMARK  228  A    between atoms: _547  and  _548
REMARK  229  A    between atoms: _557  and  _559
REMARK  230  A    between atoms: _559  and  _560
REMARK  231  A    between atoms: _559  and  _562
REMARK  232  A    between atoms: _565  and  _567
REMARK  233  A    between atoms: _567  and  _568
REMARK  234  A    between atoms: _570  and  _572
REMARK  235  A    between atoms: _572  and  _573
REMARK  236  A    between atoms: _572  and  _575
REMARK  237  A    between atoms: _575  and  _576
REMARK  238  A    between atoms: _576  and  _577
REMARK  239  A    between atoms: _577  and  _578
REMARK  240  A    between atoms: _587  and  _589
REMARK  241  A    between atoms: _589  and  _590
REMARK  242  A    between atoms: _589  and  _592
REMARK  243  A    between atoms: _595  and  _597
REMARK  244  A    between atoms: _597  and  _598
REMARK  245  A    between atoms: _597  and  _600
REMARK  246  A    between atoms: _600  and  _601
REMARK  247  A    between atoms: _606  and  _607
REMARK  248  A    between atoms: _609  and  _611
REMARK  249  A    between atoms: _611  and  _612
REMARK  250  A    between atoms: _611  and  _614
REMARK  251  A    between atoms: _614  and  _615
REMARK  252  A    between atoms: _620  and  _622
REMARK  253  A    between atoms: _622  and  _623
REMARK  254  A    between atoms: _622  and  _625
REMARK  255  A    between atoms: _628  and  _630
REMARK  256  A    between atoms: _630  and  _631
REMARK  257  A    between atoms: _630  and  _633
REMARK  258  A    between atoms: _633  and  _634
REMARK  259  A    between atoms: _634  and  _635
REMARK  260  A    between atoms: _635  and  _636
REMARK  261  A    between atoms: _636  and  _637
REMARK  262  A    between atoms: _641  and  _643
REMARK  263  A    between atoms: _643  and  _644
REMARK  264  A    between atoms: _643  and  _646
REMARK  265  A    between atoms: _646  and  _647
REMARK  266  A    between atoms: _653  and  _655
REMARK  267  A    between atoms: _655  and  _656
REMARK  268  A    between atoms: _655  and  _658
REMARK  269  A    between atoms: _658  and  _659
REMARK  270  A    between atoms: _665  and  _666
REMARK  271  A    between atoms: _671  and  _673
REMARK  272  A    between atoms: _673  and  _674
REMARK  273  A    between atoms: _673  and  _676
REMARK  274  A    between atoms: _676  and  _677
REMARK  275  A    between atoms: _677  and  _678
REMARK  276  A    between atoms: _678  and  _679
REMARK  277  A    between atoms: _688  and  _690
REMARK  278  A    between atoms: _690  and  _691
REMARK  279  A    between atoms: _690  and  _693
REMARK  280  A    between atoms: _693  and  _694
REMARK  281  A    between atoms: _697  and  _699
REMARK  282  A    between atoms: _699  and  _700
REMARK  283  A    between atoms: _699  and  _702
REMARK  284  A    between atoms: _702  and  _703
REMARK  285  A    between atoms: _706  and  _708
REMARK  286  A    between atoms: _708  and  _709
REMARK  287  A    between atoms: _708  and  _711
REMARK  288  A    between atoms: _711  and  _712
REMARK  289  A    between atoms: _715  and  _717
REMARK  290  A    between atoms: _717  and  _718
REMARK  291  A    between atoms: _717  and  _720
REMARK  292  A    between atoms: _723  and  _725
REMARK  293  A    between atoms: _725  and  _726
REMARK  294  A    between atoms: _725  and  _728
REMARK  295  A    between atoms: _728  and  _729
REMARK  296  A    between atoms: _729  and  _730
REMARK  297  A    between atoms: _730  and  _731
REMARK  298  A    between atoms: _731  and  _732
REMARK  299  A    between atoms: _736  and  _738
REMARK  300  A    between atoms: _738  and  _739
REMARK  301  A    between atoms: _738  and  _741
REMARK  302  A    between atoms: _741  and  _742
REMARK  303  A    between atoms: _742  and  _743
REMARK  304  A    between atoms: _743  and  _744
REMARK  305  A    between atoms: _753  and  _755
REMARK  306  A    between atoms: _755  and  _756
REMARK  307  A    between atoms: _755  and  _758
REMARK  308  A    between atoms: _758  and  _759
REMARK  309  A    between atoms: _762  and  _764
REMARK  310  A    between atoms: _764  and  _765
REMARK  311  A    between atoms: _764  and  _767
REMARK  312  A    between atoms: _767  and  _768
REMARK  313  A    between atoms: _768  and  _769
REMARK  314  A    between atoms: _772  and  _774
REMARK  315  A    between atoms: _774  and  _775
REMARK  316  A    between atoms: _774  and  _777
REMARK  317  A    between atoms: _777  and  _778
REMARK  318  A    between atoms: _788  and  _790
REMARK  319  A    between atoms: _790  and  _791
REMARK  320  A    between atoms: _790  and  _793
REMARK  321  A    between atoms: _793  and  _794
REMARK  322  A    between atoms: _797  and  _799
REMARK  323  A    between atoms: _799  and  _800
REMARK  324  A    between atoms: _799  and  _802
REMARK  325  A    between atoms: _802  and  _803
REMARK  326  A    between atoms: _806  and  _808
REMARK  327  A    between atoms: _808  and  _809
REMARK  328  A    between atoms: _811  and  _813
REMARK  329  A    between atoms: _813  and  _814
REMARK  330  A    between atoms: _813  and  _816
REMARK  331  A    between atoms: _816  and  _817
REMARK  332  A    between atoms: _820  and  _822
REMARK  333  A    between atoms: _822  and  _823
REMARK  334  A    between atoms: _822  and  _825
REMARK  335  A    between atoms: _825  and  _826
REMARK  336  A    between atoms: _826  and  _827
REMARK  337  A    between atoms: _827  and  _828
REMARK  338  A    between atoms: _828  and  _829
REMARK  339  A    between atoms: _834  and  _835
REMARK  340  A    between atoms: _840  and  _842
REMARK  341  A    between atoms: _842  and  _843
REMARK  342  A    between atoms: _842  and  _845
REMARK  343  A    between atoms: _848  and  _850
REMARK  344  A    between atoms: _850  and  _851
REMARK  345  A    between atoms: _854  and  _856
REMARK  346  A    between atoms: _856  and  _857
REMARK  347  A    between atoms: _856  and  _859
REMARK  348  A    between atoms: _859  and  _860
REMARK  349  A    between atoms: _860  and  _861
REMARK  350  A    between atoms: _864  and  _866
REMARK  351  A    between atoms: _866  and  _867
REMARK  352  A    between atoms: _866  and  _869
REMARK  353  A    between atoms: _872  and  _874
REMARK  354  A    between atoms: _874  and  _875
REMARK  355  A    between atoms: _874  and  _877
REMARK  356  A    between atoms: _877  and  _878
REMARK  357  A    between atoms: _878  and  _879
REMARK  358  A    between atoms: _879  and  _880
REMARK                            x       y       z     vdW  Elec       q    Type
REMARK                         _______ _______ _______ _____ _____    ______ ____
ROOT
ATOM      1  O   HOH     1     -27.240  23.194 -37.723  0.00  0.00    +0.000 OA
ENDROOT
TORSDOF 0
REMARK  Name = ../refined-set-2016/4x8o/4x8o_pocket.pdb
REMARK  358 active torsions:
REMARK  status: ('A' for Active; 'I' for Inactive)
REMARK    1  A    between atoms: _1  and  _3
REMARK    2  A    between atoms: _3  and  _4
REMARK    3  A    between atoms: _3  and  _6
REMARK    4  A    between atoms: _6  and  _7
REMARK    5  A    between atoms: _10  and  _12
REMARK    6  A    between atoms: _12  and  _13
REMARK    7  A    between atoms: _12  and  _15
REMARK    8  A    between atoms: _15  and  _16
REMARK    9  A    between atoms: _19  and  _21
REMARK   10  A    between atoms: _21  and  _22
REMARK   11  A    between atoms: _24  and  _26
REMARK   12  A    between atoms: _26  and  _27
REMARK   13  A    between atoms: _31  and  _32
REMARK   14  A    between atoms: _37  and  _39
REMARK   15  A    between atoms: _39  and  _40
REMARK   16  A    between atoms: _42  and  _44
REMARK   17  A    between atoms: _44  and  _45
REMARK   18  A    between atoms: _48  and  _50
REMARK   19  A    between atoms: _50  and  _51
REMARK   20  A    between atoms: _53  and  _55
REMARK   21  A    between atoms: _55  and  _56
REMARK   22  A    between atoms: _55  and  _58
REMARK   23  A    between atoms: _58  and  _59
REMARK   24  A    between atoms: _59  and  _60
REMARK   25  A    between atoms: _60  and  _61
REMARK   26  A    between atoms: _61  and  _62
REMARK   27  A    between atoms: _66  and  _68
REMARK   28  A    between atoms: _68  and  _69
REMARK   29  A    between atoms: _71  and  _73
REMARK   30  A    between atoms: _73  and  _74
REMARK   31  A    between atoms: _73  and  _76
REMARK   32  A    between atoms: _76  and  _77
REMARK   33  A    between atoms: _80  and  _82
REMARK   34  A    between atoms: _82  and  _83
REMARK   35  A    between atoms: _82  and  _85
REMARK   36  A    between atoms: _85  and  _86
REMARK   37  A    between atoms: _86  and  _87
REMARK   38  A    between atoms: _92  and  _94
REMARK   39  A    between atoms: _94  and  _95
REMARK   40  A    between atoms: _98  and  _100
REMARK   41  A    between atoms: _100  and  _101
REMARK   42  A    between atoms: _100  and  _103
REMARK   43  A    between atoms: _103  and  _104
REMARK   44  A    between atoms: _104  and  _105
REMARK   45  A    between atoms: _110  and  _112
REMARK   46  A    between atoms: _112  and  _113
REMARK   47  A    between atoms: _112  and  _115
REMARK   48  A    between atoms: _115  and  _116
REMARK   49  A    between atoms: _122  and  _124
REMARK   50  A    between atoms: _124  and  _125
REMARK   51  A    between atoms: _124  and  _127
REMARK   52  A    between atoms: _127  and  _128
REMARK   53  A    between atoms: _128  and  _129
REMARK   54  A    between atoms: _134  and  _136
REMARK   55  A    between atoms: _136  and  _137
REMARK   56  A    between atoms: _136  and  _139
REMARK   57  A    between atoms: _139  and  _140
REMARK   58  A    between atoms: _142  and  _144
REMARK   59  A    between atoms: _144  and  _145
REMARK   60  A    between atoms: _144  and  _147
REMARK   61  A    between atoms: _147  and  _148
REMARK   62  A    between atoms: _151  and  _153
REMARK   63  A    between atoms: _153  and  _154
REMARK   64  A    between atoms: _156  and  _158
REMARK   65  A    between atoms: _158  and  _159
REMARK   66  A    between atoms: _158  and  _161
REMARK   67  A    between atoms: _161  and  _162
REMARK   68  A    between atoms: _165  and  _167
REMARK   69  A    between atoms: _167  and  _168
REMARK   70  A    between atoms: _167  and  _170
REMARK   71  A    between atoms: _170  and  _171
REMARK   72  A    between atoms: _171  and  _172
REMARK   73  A    between atoms: _174  and  _176
REMARK   74  A    between atoms: _176  and  _177
REMARK   75  A    between atoms: _176  and  _179
REMARK   76  A    between atoms: _179  and  _180
REMARK   77  A    between atoms: _183  and  _185
REMARK   78  A    between atoms: _185  and  _186
REMARK   79  A    between atoms: _185  and  _188
REMARK   80  A    between atoms: _188  and  _189
REMARK   81  A    between atoms: _189  and  _190
REMARK   82  A    between atoms: _190  and  _191
REMARK   83  A    between atoms: _200  and  _202
REMARK   84  A    between atoms: _202  and  _203
REMARK   85  A    between atoms: _206  and  _208
REMARK   86  A    between atoms: _208  and  _209
REMARK   87  A    between atoms: _208  and  _211
REMARK   88  A    between atoms: _211  and  _212
REMARK   89  A    between atoms: _212  and  _213
REMARK   90  A    between atoms: _213  and  _214
REMARK   91  A    between atoms: _214  and  _215
REMARK   92  A    between atoms: _219  and  _221
REMARK   93  A    between atoms: _221  and  _222
REMARK   94  A    between atoms: _221  and  _224
REMARK   95  A    between atoms: _224  and  _225
REMARK   96  A    between atoms: _228  and  _230
REMARK   97  A    between atoms: _230  and  _231
REMARK   98  A    between atoms: _230  and  _233
REMARK   99  A    between atoms: _233  and  _234
REMARK  100  A    between atoms: _237  and  _239
REMARK  101  A    between atoms: _239  and  _240
REMARK  102  A    between atoms: _239  and  _242
REMARK  103  A    between atoms: _242  and  _243
REMARK  104  A    between atoms: _243  and  _244
REMARK  105  A    between atoms: _246  and  _248
REMARK  106  A    between atoms: _248  and  _249
REMARK  107  A    between atoms: _248  and  _251
REMARK  108  A    between atoms: _251  and  _252
REMARK  109  A    between atoms: _255  and  _257
REMARK  110  A    between atoms: _257  and  _258
REMARK  111  A    between atoms: _261  and  _263
REMARK  112  A    between atoms: _263  and  _264
REMARK  113  A    between atoms: _266  and  _268
REMARK  114  A    between atoms: _268  and  _269
REMARK  115  A    between atoms: _268  and  _271
REMARK  116  A    between atoms: _271  and  _272
REMARK  117  A    between atoms: _272  and  _273
REMARK  118  A    between atoms: _273  and  _274
REMARK  119  A    between atoms: _274  and  _275
REMARK  120  A    between atoms: _279  and  _281
REMARK  121  A    between atoms: _281  and  _282
REMARK  122  A    between atoms: _281  and  _284
REMARK  123  A    between atoms: _284  and  _285
REMARK  124  A    between atoms: _288  and  _290
REMARK  125  A    between atoms: _290  and  _291
REMARK  126  A    between atoms: _290  and  _293
REMARK  127  A    between atoms: _296  and  _298
REMARK  128  A    between atoms: _298  and  _299
REMARK  129  A    between atoms: _298  and  _301
REMARK  130  A    between atoms: _301  and  _302
REMARK  131  A    between atoms: _305  and  _307
REMARK  132  A    between atoms: _307  and  _308
REMARK  133  A    between atoms: _307  and  _310
REMARK  134  A    between atoms: _310  and  _311
REMARK  135  A    between atoms: _314  and  _316
REMARK  136  A    between atoms: _316  and  _317
REMARK  137  A    between atoms: _316  and  _319
REMARK  138  A    between atoms: _319  and  _320
REMARK  139  A    between atoms: _320  and  _321
REMARK  140  A    between atoms: _324  and  _326
REMARK  141  A    between atoms: _326  and  _327
REMARK  142  A    between atoms: _326  and  _329
REMARK  143  A    between atoms: _329  and  _330
REMARK  144  A    between atoms: _333  and  _335
REMARK  145  A    between atoms: _335  and  _336
REMARK  146  A    between atoms: _335  and  _338
REMARK  147  A    between atoms: _341  and  _343
REMARK  148  A    between atoms: _343  and  _344
REMARK  149  A    between atoms: _343  and  _346
REMARK  150  A    between atoms: _346  and  _347
REMARK  151  A    between atoms: _350  and  _352
REMARK  152  A    between atoms: _352  and  _353
REMARK  153  A    between atoms: _352  and  _355
REMARK  154  A    between atoms: _358  and  _360
REMARK  155  A    between atoms: _360  and  _361
REMARK  156  A    between atoms: _360  and  _363
REMARK  157  A    between atoms: _363  and  _364
REMARK  158  A    between atoms: _367  and  _369
REMARK  159  A    between atoms: _369  and  _370
REMARK  160  A    between atoms: _372  and  _374
REMARK  161  A    between atoms: _374  and  _375
REMARK  162  A    between atoms: _374  and  _377
REMARK  163  A    between atoms: _377  and  _378
REMARK  164  A    between atoms: _385  and  _386
REMARK  165  A    between atoms: _391  and  _393
REMARK  166  A    between atoms: _393  and  _394
REMARK  167  A    between atoms: _393  and  _396
REMARK  168  A    between atoms: _396  and  _397
REMARK  169  A    between atoms: _397  and  _398
REMARK  170  A    between atoms: _398  and  _399
REMARK  171  A    between atoms: _408  and  _410
REMARK  172  A    between atoms: _410  and  _411
REMARK  173  A    between atoms: _410  and  _413
REMARK  174  A    between atoms: _413  and  _414
REMARK  175  A    between atoms: _417  and  _419
REMARK  176  A    between atoms: _419  and  _420
REMARK  177  A    between atoms: _419  and  _422
REMARK  178  A    between atoms: _422  and  _423
REMARK  179  A    between atoms: _423  and  _424
REMARK  180  A    between atoms: _429  and  _431
REMARK  181  A    between atoms: _431  and  _432
REMARK  182  A    between atoms: _431  and  _434
REMARK  183  A    between atoms: _434  and  _435
REMARK  184  A    between atoms: _441  and  _443
REMARK  185  A    between atoms: _443  and  _444
REMARK  186  A    between atoms: _443  and  _446
REMARK  187  A    between atoms: _449  and  _451
REMARK  188  A    between atoms: _451  and  _452
REMARK  189  A    between atoms: _451  and  _454
REMARK  190  A    between atoms: _454  and  _455
REMARK  191  A    between atoms: _458  and  _460
REMARK  192  A    between atoms: _460  and  _461
REMARK  193  A    between atoms: _460  and  _463
REMARK  194  A    between atoms: _463  and  _464
REMARK  195  A    between atoms: _467  and  _469
REMARK  196  A    between atoms: _469  and  _470
REMARK  197  A    between atoms: _469  and  _472
REMARK  198  A    between atoms: _475  and  _477
REMARK  199  A    between atoms: _477  and  _478
REMARK  200  A    between atoms: _477  and  _480
REMARK  201  A    between atoms: _480  and  _481
REMARK  202  A    between atoms: _484  and  _486
REMARK  203  A    between atoms: _486  and  _487
REMARK  204  A    between atoms: _486  and  _489
REMARK  205  A    between atoms: _489  and  _490
REMARK  206  A    between atoms: _490  and  _491
REMARK  207  A    between atoms: _491  and  _492
REMARK  208  A    between atoms: _501  and  _503
REMARK  209  A    between atoms: _503  and  _504
REMARK  210  A    between atoms: _503  and  _506
REMARK  211  A    between atoms: _506  and  _507
REMARK  212  A    between atoms: _510  and  _512
REMARK  213  A    between atoms: _512  and  _513
REMARK  214  A    between atoms: _512  and  _515
REMARK  215  A    between atoms: _518  and  _520
REMARK  216  A    between atoms: _520  and  _521
REMARK  217  A    between atoms: _523  and  _525
REMARK  218  A    between atoms: _525  and  _526
REMARK  219  A    between atoms: _525  and  _528
REMARK  220  A    between atoms: _528  and  _529
REMARK  221  A    between atoms: _529  and  _530
REMARK  222  A    between atoms: _530  and  _531
REMARK  223  A    between atoms: _540  and  _542
REMARK  224  A    between atoms: _542  and  _543
REMARK  225  A    between atoms: _542  and  _545
REMARK  226  A    between atoms: _545  and  _546
REMARK  227  A    between atoms: _546  and  _547
REMARK  228  A    between atoms: _547  and  _548
REMARK  229  A    between atoms: _557  and  _559
REMARK  230  A    between atoms: _559  and  _560
REMARK  231  A    between atoms: _559  and  _562
REMARK  232  A    between atoms: _565  and  _567
REMARK  233  A    between atoms: _567  and  _568
REMARK  234  A    between atoms: _570  and  _572
REMARK  235  A    between atoms: _572  and  _573
REMARK  236  A    between atoms: _572  and  _575
REMARK  237  A    between atoms: _575  and  _576
REMARK  238  A    between atoms: _576  and  _577
REMARK  239  A    between atoms: _577  and  _578
REMARK  240  A    between atoms: _587  and  _589
REMARK  241  A    between atoms: _589  and  _590
REMARK  242  A    between atoms: _589  and  _592
REMARK  243  A    between atoms: _595  and  _597
REMARK  244  A    between atoms: _597  and  _598
REMARK  245  A    between atoms: _597  and  _600
REMARK  246  A    between atoms: _600  and  _601
REMARK  247  A    between atoms: _606  and  _607
REMARK  248  A    between atoms: _609  and  _611
REMARK  249  A    between atoms: _611  and  _612
REMARK  250  A    between atoms: _611  and  _614
REMARK  251  A    between atoms: _614  and  _615
REMARK  252  A    between atoms: _620  and  _622
REMARK  253  A    between atoms: _622  and  _623
REMARK  254  A    between atoms: _622  and  _625
REMARK  255  A    between atoms: _628  and  _630
REMARK  256  A    between atoms: _630  and  _631
REMARK  257  A    between atoms: _630  and  _633
REMARK  258  A    between atoms: _633  and  _634
REMARK  259  A    between atoms: _634  and  _635
REMARK  260  A    between atoms: _635  and  _636
REMARK  261  A    between atoms: _636  and  _637
REMARK  262  A    between atoms: _641  and  _643
REMARK  263  A    between atoms: _643  and  _644
REMARK  264  A    between atoms: _643  and  _646
REMARK  265  A    between atoms: _646  and  _647
REMARK  266  A    between atoms: _653  and  _655
REMARK  267  A    between atoms: _655  and  _656
REMARK  268  A    between atoms: _655  and  _658
REMARK  269  A    between atoms: _658  and  _659
REMARK  270  A    between atoms: _665  and  _666
REMARK  271  A    between atoms: _671  and  _673
REMARK  272  A    between atoms: _673  and  _674
REMARK  273  A    between atoms: _673  and  _676
REMARK  274  A    between atoms: _676  and  _677
REMARK  275  A    between atoms: _677  and  _678
REMARK  276  A    between atoms: _678  and  _679
REMARK  277  A    between atoms: _688  and  _690
REMARK  278  A    between atoms: _690  and  _691
REMARK  279  A    between atoms: _690  and  _693
REMARK  280  A    between atoms: _693  and  _694
REMARK  281  A    between atoms: _697  and  _699
REMARK  282  A    between atoms: _699  and  _700
REMARK  283  A    between atoms: _699  and  _702
REMARK  284  A    between atoms: _702  and  _703
REMARK  285  A    between atoms: _706  and  _708
REMARK  286  A    between atoms: _708  and  _709
REMARK  287  A    between atoms: _708  and  _711
REMARK  288  A    between atoms: _711  and  _712
REMARK  289  A    between atoms: _715  and  _717
REMARK  290  A    between atoms: _717  and  _718
REMARK  291  A    between atoms: _717  and  _720
REMARK  292  A    between atoms: _723  and  _725
REMARK  293  A    between atoms: _725  and  _726
REMARK  294  A    between atoms: _725  and  _728
REMARK  295  A    between atoms: _728  and  _729
REMARK  296  A    between atoms: _729  and  _730
REMARK  297  A    between atoms: _730  and  _731
REMARK  298  A    between atoms: _731  and  _732
REMARK  299  A    between atoms: _736  and  _738
REMARK  300  A    between atoms: _738  and  _739
REMARK  301  A    between atoms: _738  and  _741
REMARK  302  A    between atoms: _741  and  _742
REMARK  303  A    between atoms: _742  and  _743
REMARK  304  A    between atoms: _743  and  _744
REMARK  305  A    between atoms: _753  and  _755
REMARK  306  A    between atoms: _755  and  _756
REMARK  307  A    between atoms: _755  and  _758
REMARK  308  A    between atoms: _758  and  _759
REMARK  309  A    between atoms: _762  and  _764
REMARK  310  A    between atoms: _764  and  _765
REMARK  311  A    between atoms: _764  and  _767
REMARK  312  A    between atoms: _767  and  _768
REMARK  313  A    between atoms: _768  and  _769
REMARK  314  A    between atoms: _772  and  _774
REMARK  315  A    between atoms: _774  and  _775
REMARK  316  A    between atoms: _774  and  _777
REMARK  317  A    between atoms: _777  and  _778
REMARK  318  A    between atoms: _788  and  _790
REMARK  319  A    between atoms: _790  and  _791
REMARK  320  A    between atoms: _790  and  _793
REMARK  321  A    between atoms: _793  and  _794
REMARK  322  A    between atoms: _797  and  _799
REMARK  323  A    between atoms: _799  and  _800
REMARK  324  A    between atoms: _799  and  _802
REMARK  325  A    between atoms: _802  and  _803
REMARK  326  A    between atoms: _806  and  _808
REMARK  327  A    between atoms: _808  and  _809
REMARK  328  A    between atoms: _811  and  _813
REMARK  329  A    between atoms: _813  and  _814
REMARK  330  A    between atoms: _813  and  _816
REMARK  331  A    between atoms: _816  and  _817
REMARK  332  A    between atoms: _820  and  _822
REMARK  333  A    between atoms: _822  and  _823
REMARK  334  A    between atoms: _822  and  _825
REMARK  335  A    between atoms: _825  and  _826
REMARK  336  A    between atoms: _826  and  _827
REMARK  337  A    between atoms: _827  and  _828
REMARK  338  A    between atoms: _828  and  _829
REMARK  339  A    between atoms: _834  and  _835
REMARK  340  A    between atoms: _840  and  _842
REMARK  341  A    between atoms: _842  and  _843
REMARK  342  A    between atoms: _842  and  _845
REMARK  343  A    between atoms: _848  and  _850
REMARK  344  A    between atoms: _850  and  _851
REMARK  345  A    between atoms: _854  and  _856
REMARK  346  A    between atoms: _856  and  _857
REMARK  347  A    between atoms: _856  and  _859
REMARK  348  A    between atoms: _859  and  _860
REMARK  349  A    between atoms: _860  and  _861
REMARK  350  A    between atoms: _864  and  _866
REMARK  351  A    between atoms: _866  and  _867
REMARK  352  A    between atoms: _866  and  _869
REMARK  353  A    between atoms: _872  and  _874
REMARK  354  A    between atoms: _874  and  _875
REMARK  355  A    between atoms: _874  and  _877
REMARK  356  A    between atoms: _877  and  _878
REMARK  357  A    between atoms: _878  and  _879
REMARK  358  A    between atoms: _879  and  _880
REMARK                            x       y       z     vdW  Elec       q    Type
REMARK                         _______ _______ _______ _____ _____    ______ ____
ROOT
ATOM      1  O   HOH     1     -13.206   2.171 -29.248  0.00  0.00    +0.000 OA
ENDROOT
TORSDOF 0
REMARK  Name = ../refined-set-2016/4x8o/4x8o_pocket.pdb
REMARK  358 active torsions:
REMARK  status: ('A' for Active; 'I' for Inactive)
REMARK    1  A    between atoms: _1  and  _3
REMARK    2  A    between atoms: _3  and  _4
REMARK    3  A    between atoms: _3  and  _6
REMARK    4  A    between atoms: _6  and  _7
REMARK    5  A    between atoms: _10  and  _12
REMARK    6  A    between atoms: _12  and  _13
REMARK    7  A    between atoms: _12  and  _15
REMARK    8  A    between atoms: _15  and  _16
REMARK    9  A    between atoms: _19  and  _21
REMARK   10  A    between atoms: _21  and  _22
REMARK   11  A    between atoms: _24  and  _26
REMARK   12  A    between atoms: _26  and  _27
REMARK   13  A    between atoms: _31  and  _32
REMARK   14  A    between atoms: _37  and  _39
REMARK   15  A    between atoms: _39  and  _40
REMARK   16  A    between atoms: _42  and  _44
REMARK   17  A    between atoms: _44  and  _45
REMARK   18  A    between atoms: _48  and  _50
REMARK   19  A    between atoms: _50  and  _51
REMARK   20  A    between atoms: _53  and  _55
REMARK   21  A    between atoms: _55  and  _56
REMARK   22  A    between atoms: _55  and  _58
REMARK   23  A    between atoms: _58  and  _59
REMARK   24  A    between atoms: _59  and  _60
REMARK   25  A    between atoms: _60  and  _61
REMARK   26  A    between atoms: _61  and  _62
REMARK   27  A    between atoms: _66  and  _68
REMARK   28  A    between atoms: _68  and  _69
REMARK   29  A    between atoms: _71  and  _73
REMARK   30  A    between atoms: _73  and  _74
REMARK   31  A    between atoms: _73  and  _76
REMARK   32  A    between atoms: _76  and  _77
REMARK   33  A    between atoms: _80  and  _82
REMARK   34  A    between atoms: _82  and  _83
REMARK   35  A    between atoms: _82  and  _85
REMARK   36  A    between atoms: _85  and  _86
REMARK   37  A    between atoms: _86  and  _87
REMARK   38  A    between atoms: _92  and  _94
REMARK   39  A    between atoms: _94  and  _95
REMARK   40  A    between atoms: _98  and  _100
REMARK   41  A    between atoms: _100  and  _101
REMARK   42  A    between atoms: _100  and  _103
REMARK   43  A    between atoms: _103  and  _104
REMARK   44  A    between atoms: _104  and  _105
REMARK   45  A    between atoms: _110  and  _112
REMARK   46  A    between atoms: _112  and  _113
REMARK   47  A    between atoms: _112  and  _115
REMARK   48  A    between atoms: _115  and  _116
REMARK   49  A    between atoms: _122  and  _124
REMARK   50  A    between atoms: _124  and  _125
REMARK   51  A    between atoms: _124  and  _127
REMARK   52  A    between atoms: _127  and  _128
REMARK   53  A    between atoms: _128  and  _129
REMARK   54  A    between atoms: _134  and  _136
REMARK   55  A    between atoms: _136  and  _137
REMARK   56  A    between atoms: _136  and  _139
REMARK   57  A    between atoms: _139  and  _140
REMARK   58  A    between atoms: _142  and  _144
REMARK   59  A    between atoms: _144  and  _145
REMARK   60  A    between atoms: _144  and  _147
REMARK   61  A    between atoms: _147  and  _148
REMARK   62  A    between atoms: _151  and  _153
REMARK   63  A    between atoms: _153  and  _154
REMARK   64  A    between atoms: _156  and  _158
REMARK   65  A    between atoms: _158  and  _159
REMARK   66  A    between atoms: _158  and  _161
REMARK   67  A    between atoms: _161  and  _162
REMARK   68  A    between atoms: _165  and  _167
REMARK   69  A    between atoms: _167  and  _168
REMARK   70  A    between atoms: _167  and  _170
REMARK   71  A    between atoms: _170  and  _171
REMARK   72  A    between atoms: _171  and  _172
REMARK   73  A    between atoms: _174  and  _176
REMARK   74  A    between atoms: _176  and  _177
REMARK   75  A    between atoms: _176  and  _179
REMARK   76  A    between atoms: _179  and  _180
REMARK   77  A    between atoms: _183  and  _185
REMARK   78  A    between atoms: _185  and  _186
REMARK   79  A    between atoms: _185  and  _188
REMARK   80  A    between atoms: _188  and  _189
REMARK   81  A    between atoms: _189  and  _190
REMARK   82  A    between atoms: _190  and  _191
REMARK   83  A    between atoms: _200  and  _202
REMARK   84  A    between atoms: _202  and  _203
REMARK   85  A    between atoms: _206  and  _208
REMARK   86  A    between atoms: _208  and  _209
REMARK   87  A    between atoms: _208  and  _211
REMARK   88  A    between atoms: _211  and  _212
REMARK   89  A    between atoms: _212  and  _213
REMARK   90  A    between atoms: _213  and  _214
REMARK   91  A    between atoms: _214  and  _215
REMARK   92  A    between atoms: _219  and  _221
REMARK   93  A    between atoms: _221  and  _222
REMARK   94  A    between atoms: _221  and  _224
REMARK   95  A    between atoms: _224  and  _225
REMARK   96  A    between atoms: _228  and  _230
REMARK   97  A    between atoms: _230  and  _231
REMARK   98  A    between atoms: _230  and  _233
REMARK   99  A    between atoms: _233  and  _234
REMARK  100  A    between atoms: _237  and  _239
REMARK  101  A    between atoms: _239  and  _240
REMARK  102  A    between atoms: _239  and  _242
REMARK  103  A    between atoms: _242  and  _243
REMARK  104  A    between atoms: _243  and  _244
REMARK  105  A    between atoms: _246  and  _248
REMARK  106  A    between atoms: _248  and  _249
REMARK  107  A    between atoms: _248  and  _251
REMARK  108  A    between atoms: _251  and  _252
REMARK  109  A    between atoms: _255  and  _257
REMARK  110  A    between atoms: _257  and  _258
REMARK  111  A    between atoms: _261  and  _263
REMARK  112  A    between atoms: _263  and  _264
REMARK  113  A    between atoms: _266  and  _268
REMARK  114  A    between atoms: _268  and  _269
REMARK  115  A    between atoms: _268  and  _271
REMARK  116  A    between atoms: _271  and  _272
REMARK  117  A    between atoms: _272  and  _273
REMARK  118  A    between atoms: _273  and  _274
REMARK  119  A    between atoms: _274  and  _275
REMARK  120  A    between atoms: _279  and  _281
REMARK  121  A    between atoms: _281  and  _282
REMARK  122  A    between atoms: _281  and  _284
REMARK  123  A    between atoms: _284  and  _285
REMARK  124  A    between atoms: _288  and  _290
REMARK  125  A    between atoms: _290  and  _291
REMARK  126  A    between atoms: _290  and  _293
REMARK  127  A    between atoms: _296  and  _298
REMARK  128  A    between atoms: _298  and  _299
REMARK  129  A    between atoms: _298  and  _301
REMARK  130  A    between atoms: _301  and  _302
REMARK  131  A    between atoms: _305  and  _307
REMARK  132  A    between atoms: _307  and  _308
REMARK  133  A    between atoms: _307  and  _310
REMARK  134  A    between atoms: _310  and  _311
REMARK  135  A    between atoms: _314  and  _316
REMARK  136  A    between atoms: _316  and  _317
REMARK  137  A    between atoms: _316  and  _319
REMARK  138  A    between atoms: _319  and  _320
REMARK  139  A    between atoms: _320  and  _321
REMARK  140  A    between atoms: _324  and  _326
REMARK  141  A    between atoms: _326  and  _327
REMARK  142  A    between atoms: _326  and  _329
REMARK  143  A    between atoms: _329  and  _330
REMARK  144  A    between atoms: _333  and  _335
REMARK  145  A    between atoms: _335  and  _336
REMARK  146  A    between atoms: _335  and  _338
REMARK  147  A    between atoms: _341  and  _343
REMARK  148  A    between atoms: _343  and  _344
REMARK  149  A    between atoms: _343  and  _346
REMARK  150  A    between atoms: _346  and  _347
REMARK  151  A    between atoms: _350  and  _352
REMARK  152  A    between atoms: _352  and  _353
REMARK  153  A    between atoms: _352  and  _355
REMARK  154  A    between atoms: _358  and  _360
REMARK  155  A    between atoms: _360  and  _361
REMARK  156  A    between atoms: _360  and  _363
REMARK  157  A    between atoms: _363  and  _364
REMARK  158  A    between atoms: _367  and  _369
REMARK  159  A    between atoms: _369  and  _370
REMARK  160  A    between atoms: _372  and  _374
REMARK  161  A    between atoms: _374  and  _375
REMARK  162  A    between atoms: _374  and  _377
REMARK  163  A    between atoms: _377  and  _378
REMARK  164  A    between atoms: _385  and  _386
REMARK  165  A    between atoms: _391  and  _393
REMARK  166  A    between atoms: _393  and  _394
REMARK  167  A    between atoms: _393  and  _396
REMARK  168  A    between atoms: _396  and  _397
REMARK  169  A    between atoms: _397  and  _398
REMARK  170  A    between atoms: _398  and  _399
REMARK  171  A    between atoms: _408  and  _410
REMARK  172  A    between atoms: _410  and  _411
REMARK  173  A    between atoms: _410  and  _413
REMARK  174  A    between atoms: _413  and  _414
REMARK  175  A    between atoms: _417  and  _419
REMARK  176  A    between atoms: _419  and  _420
REMARK  177  A    between atoms: _419  and  _422
REMARK  178  A    between atoms: _422  and  _423
REMARK  179  A    between atoms: _423  and  _424
REMARK  180  A    between atoms: _429  and  _431
REMARK  181  A    between atoms: _431  and  _432
REMARK  182  A    between atoms: _431  and  _434
REMARK  183  A    between atoms: _434  and  _435
REMARK  184  A    between atoms: _441  and  _443
REMARK  185  A    between atoms: _443  and  _444
REMARK  186  A    between atoms: _443  and  _446
REMARK  187  A    between atoms: _449  and  _451
REMARK  188  A    between atoms: _451  and  _452
REMARK  189  A    between atoms: _451  and  _454
REMARK  190  A    between atoms: _454  and  _455
REMARK  191  A    between atoms: _458  and  _460
REMARK  192  A    between atoms: _460  and  _461
REMARK  193  A    between atoms: _460  and  _463
REMARK  194  A    between atoms: _463  and  _464
REMARK  195  A    between atoms: _467  and  _469
REMARK  196  A    between atoms: _469  and  _470
REMARK  197  A    between atoms: _469  and  _472
REMARK  198  A    between atoms: _475  and  _477
REMARK  199  A    between atoms: _477  and  _478
REMARK  200  A    between atoms: _477  and  _480
REMARK  201  A    between atoms: _480  and  _481
REMARK  202  A    between atoms: _484  and  _486
REMARK  203  A    between atoms: _486  and  _487
REMARK  204  A    between atoms: _486  and  _489
REMARK  205  A    between atoms: _489  and  _490
REMARK  206  A    between atoms: _490  and  _491
REMARK  207  A    between atoms: _491  and  _492
REMARK  208  A    between atoms: _501  and  _503
REMARK  209  A    between atoms: _503  and  _504
REMARK  210  A    between atoms: _503  and  _506
REMARK  211  A    between atoms: _506  and  _507
REMARK  212  A    between atoms: _510  and  _512
REMARK  213  A    between atoms: _512  and  _513
REMARK  214  A    between atoms: _512  and  _515
REMARK  215  A    between atoms: _518  and  _520
REMARK  216  A    between atoms: _520  and  _521
REMARK  217  A    between atoms: _523  and  _525
REMARK  218  A    between atoms: _525  and  _526
REMARK  219  A    between atoms: _525  and  _528
REMARK  220  A    between atoms: _528  and  _529
REMARK  221  A    between atoms: _529  and  _530
REMARK  222  A    between atoms: _530  and  _531
REMARK  223  A    between atoms: _540  and  _542
REMARK  224  A    between atoms: _542  and  _543
REMARK  225  A    between atoms: _542  and  _545
REMARK  226  A    between atoms: _545  and  _546
REMARK  227  A    between atoms: _546  and  _547
REMARK  228  A    between atoms: _547  and  _548
REMARK  229  A    between atoms: _557  and  _559
REMARK  230  A    between atoms: _559  and  _560
REMARK  231  A    between atoms: _559  and  _562
REMARK  232  A    between atoms: _565  and  _567
REMARK  233  A    between atoms: _567  and  _568
REMARK  234  A    between atoms: _570  and  _572
REMARK  235  A    between atoms: _572  and  _573
REMARK  236  A    between atoms: _572  and  _575
REMARK  237  A    between atoms: _575  and  _576
REMARK  238  A    between atoms: _576  and  _577
REMARK  239  A    between atoms: _577  and  _578
REMARK  240  A    between atoms: _587  and  _589
REMARK  241  A    between atoms: _589  and  _590
REMARK  242  A    between atoms: _589  and  _592
REMARK  243  A    between atoms: _595  and  _597
REMARK  244  A    between atoms: _597  and  _598
REMARK  245  A    between atoms: _597  and  _600
REMARK  246  A    between atoms: _600  and  _601
REMARK  247  A    between atoms: _606  and  _607
REMARK  248  A    between atoms: _609  and  _611
REMARK  249  A    between atoms: _611  and  _612
REMARK  250  A    between atoms: _611  and  _614
REMARK  251  A    between atoms: _614  and  _615
REMARK  252  A    between atoms: _620  and  _622
REMARK  253  A    between atoms: _622  and  _623
REMARK  254  A    between atoms: _622  and  _625
REMARK  255  A    between atoms: _628  and  _630
REMARK  256  A    between atoms: _630  and  _631
REMARK  257  A    between atoms: _630  and  _633
REMARK  258  A    between atoms: _633  and  _634
REMARK  259  A    between atoms: _634  and  _635
REMARK  260  A    between atoms: _635  and  _636
REMARK  261  A    between atoms: _636  and  _637
REMARK  262  A    between atoms: _641  and  _643
REMARK  263  A    between atoms: _643  and  _644
REMARK  264  A    between atoms: _643  and  _646
REMARK  265  A    between atoms: _646  and  _647
REMARK  266  A    between atoms: _653  and  _655
REMARK  267  A    between atoms: _655  and  _656
REMARK  268  A    between atoms: _655  and  _658
REMARK  269  A    between atoms: _658  and  _659
REMARK  270  A    between atoms: _665  and  _666
REMARK  271  A    between atoms: _671  and  _673
REMARK  272  A    between atoms: _673  and  _674
REMARK  273  A    between atoms: _673  and  _676
REMARK  274  A    between atoms: _676  and  _677
REMARK  275  A    between atoms: _677  and  _678
REMARK  276  A    between atoms: _678  and  _679
REMARK  277  A    between atoms: _688  and  _690
REMARK  278  A    between atoms: _690  and  _691
REMARK  279  A    between atoms: _690  and  _693
REMARK  280  A    between atoms: _693  and  _694
REMARK  281  A    between atoms: _697  and  _699
REMARK  282  A    between atoms: _699  and  _700
REMARK  283  A    between atoms: _699  and  _702
REMARK  284  A    between atoms: _702  and  _703
REMARK  285  A    between atoms: _706  and  _708
REMARK  286  A    between atoms: _708  and  _709
REMARK  287  A    between atoms: _708  and  _711
REMARK  288  A    between atoms: _711  and  _712
REMARK  289  A    between atoms: _715  and  _717
REMARK  290  A    between atoms: _717  and  _718
REMARK  291  A    between atoms: _717  and  _720
REMARK  292  A    between atoms: _723  and  _725
REMARK  293  A    between atoms: _725  and  _726
REMARK  294  A    between atoms: _725  and  _728
REMARK  295  A    between atoms: _728  and  _729
REMARK  296  A    between atoms: _729  and  _730
REMARK  297  A    between atoms: _730  and  _731
REMARK  298  A    between atoms: _731  and  _732
REMARK  299  A    between atoms: _736  and  _738
REMARK  300  A    between atoms: _738  and  _739
REMARK  301  A    between atoms: _738  and  _741
REMARK  302  A    between atoms: _741  and  _742
REMARK  303  A    between atoms: _742  and  _743
REMARK  304  A    between atoms: _743  and  _744
REMARK  305  A    between atoms: _753  and  _755
REMARK  306  A    between atoms: _755  and  _756
REMARK  307  A    between atoms: _755  and  _758
REMARK  308  A    between atoms: _758  and  _759
REMARK  309  A    between atoms: _762  and  _764
REMARK  310  A    between atoms: _764  and  _765
REMARK  311  A    between atoms: _764  and  _767
REMARK  312  A    between atoms: _767  and  _768
REMARK  313  A    between atoms: _768  and  _769
REMARK  314  A    between atoms: _772  and  _774
REMARK  315  A    between atoms: _774  and  _775
REMARK  316  A    between atoms: _774  and  _777
REMARK  317  A    between atoms: _777  and  _778
REMARK  318  A    between atoms: _788  and  _790
REMARK  319  A    between atoms: _790  and  _791
REMARK  320  A    between atoms: _790  and  _793
REMARK  321  A    between atoms: _793  and  _794
REMARK  322  A    between atoms: _797  and  _799
REMARK  323  A    between atoms: _799  and  _800
REMARK  324  A    between atoms: _799  and  _802
REMARK  325  A    between atoms: _802  and  _803
REMARK  326  A    between atoms: _806  and  _808
REMARK  327  A    between atoms: _808  and  _809
REMARK  328  A    between atoms: _811  and  _813
REMARK  329  A    between atoms: _813  and  _814
REMARK  330  A    between atoms: _813  and  _816
REMARK  331  A    between atoms: _816  and  _817
REMARK  332  A    between atoms: _820  and  _822
REMARK  333  A    between atoms: _822  and  _823
REMARK  334  A    between atoms: _822  and  _825
REMARK  335  A    between atoms: _825  and  _826
REMARK  336  A    between atoms: _826  and  _827
REMARK  337  A    between atoms: _827  and  _828
REMARK  338  A    between atoms: _828  and  _829
REMARK  339  A    between atoms: _834  and  _835
REMARK  340  A    between atoms: _840  and  _842
REMARK  341  A    between atoms: _842  and  _843
REMARK  342  A    between atoms: _842  and  _845
REMARK  343  A    between atoms: _848  and  _850
REMARK  344  A    between atoms: _850  and  _851
REMARK  345  A    between atoms: _854  and  _856
REMARK  346  A    between atoms: _856  and  _857
REMARK  347  A    between atoms: _856  and  _859
REMARK  348  A    between atoms: _859  and  _860
REMARK  349  A    between atoms: _860  and  _861
REMARK  350  A    between atoms: _864  and  _866
REMARK  351  A    between atoms: _866  and  _867
REMARK  352  A    between atoms: _866  and  _869
REMARK  353  A    between atoms: _872  and  _874
REMARK  354  A    between atoms: _874  and  _875
REMARK  355  A    between atoms: _874  and  _877
REMARK  356  A    between atoms: _877  and  _878
REMARK  357  A    between atoms: _878  and  _879
REMARK  358  A    between atoms: _879  and  _880
REMARK                            x       y       z     vdW  Elec       q    Type
REMARK                         _______ _______ _______ _____ _____    ______ ____
ROOT
ATOM      1  O   HOH     1     -17.915  10.621 -28.774  0.00  0.00    +0.000 OA
ENDROOT
TORSDOF 0
REMARK  Name = ../refined-set-2016/4x8o/4x8o_pocket.pdb
REMARK  358 active torsions:
REMARK  status: ('A' for Active; 'I' for Inactive)
REMARK    1  A    between atoms: _1  and  _3
REMARK    2  A    between atoms: _3  and  _4
REMARK    3  A    between atoms: _3  and  _6
REMARK    4  A    between atoms: _6  and  _7
REMARK    5  A    between atoms: _10  and  _12
REMARK    6  A    between atoms: _12  and  _13
REMARK    7  A    between atoms: _12  and  _15
REMARK    8  A    between atoms: _15  and  _16
REMARK    9  A    between atoms: _19  and  _21
REMARK   10  A    between atoms: _21  and  _22
REMARK   11  A    between atoms: _24  and  _26
REMARK   12  A    between atoms: _26  and  _27
REMARK   13  A    between atoms: _31  and  _32
REMARK   14  A    between atoms: _37  and  _39
REMARK   15  A    between atoms: _39  and  _40
REMARK   16  A    between atoms: _42  and  _44
REMARK   17  A    between atoms: _44  and  _45
REMARK   18  A    between atoms: _48  and  _50
REMARK   19  A    between atoms: _50  and  _51
REMARK   20  A    between atoms: _53  and  _55
REMARK   21  A    between atoms: _55  and  _56
REMARK   22  A    between atoms: _55  and  _58
REMARK   23  A    between atoms: _58  and  _59
REMARK   24  A    between atoms: _59  and  _60
REMARK   25  A    between atoms: _60  and  _61
REMARK   26  A    between atoms: _61  and  _62
REMARK   27  A    between atoms: _66  and  _68
REMARK   28  A    between atoms: _68  and  _69
REMARK   29  A    between atoms: _71  and  _73
REMARK   30  A    between atoms: _73  and  _74
REMARK   31  A    between atoms: _73  and  _76
REMARK   32  A    between atoms: _76  and  _77
REMARK   33  A    between atoms: _80  and  _82
REMARK   34  A    between atoms: _82  and  _83
REMARK   35  A    between atoms: _82  and  _85
REMARK   36  A    between atoms: _85  and  _86
REMARK   37  A    between atoms: _86  and  _87
REMARK   38  A    between atoms: _92  and  _94
REMARK   39  A    between atoms: _94  and  _95
REMARK   40  A    between atoms: _98  and  _100
REMARK   41  A    between atoms: _100  and  _101
REMARK   42  A    between atoms: _100  and  _103
REMARK   43  A    between atoms: _103  and  _104
REMARK   44  A    between atoms: _104  and  _105
REMARK   45  A    between atoms: _110  and  _112
REMARK   46  A    between atoms: _112  and  _113
REMARK   47  A    between atoms: _112  and  _115
REMARK   48  A    between atoms: _115  and  _116
REMARK   49  A    between atoms: _122  and  _124
REMARK   50  A    between atoms: _124  and  _125
REMARK   51  A    between atoms: _124  and  _127
REMARK   52  A    between atoms: _127  and  _128
REMARK   53  A    between atoms: _128  and  _129
REMARK   54  A    between atoms: _134  and  _136
REMARK   55  A    between atoms: _136  and  _137
REMARK   56  A    between atoms: _136  and  _139
REMARK   57  A    between atoms: _139  and  _140
REMARK   58  A    between atoms: _142  and  _144
REMARK   59  A    between atoms: _144  and  _145
REMARK   60  A    between atoms: _144  and  _147
REMARK   61  A    between atoms: _147  and  _148
REMARK   62  A    between atoms: _151  and  _153
REMARK   63  A    between atoms: _153  and  _154
REMARK   64  A    between atoms: _156  and  _158
REMARK   65  A    between atoms: _158  and  _159
REMARK   66  A    between atoms: _158  and  _161
REMARK   67  A    between atoms: _161  and  _162
REMARK   68  A    between atoms: _165  and  _167
REMARK   69  A    between atoms: _167  and  _168
REMARK   70  A    between atoms: _167  and  _170
REMARK   71  A    between atoms: _170  and  _171
REMARK   72  A    between atoms: _171  and  _172
REMARK   73  A    between atoms: _174  and  _176
REMARK   74  A    between atoms: _176  and  _177
REMARK   75  A    between atoms: _176  and  _179
REMARK   76  A    between atoms: _179  and  _180
REMARK   77  A    between atoms: _183  and  _185
REMARK   78  A    between atoms: _185  and  _186
REMARK   79  A    between atoms: _185  and  _188
REMARK   80  A    between atoms: _188  and  _189
REMARK   81  A    between atoms: _189  and  _190
REMARK   82  A    between atoms: _190  and  _191
REMARK   83  A    between atoms: _200  and  _202
REMARK   84  A    between atoms: _202  and  _203
REMARK   85  A    between atoms: _206  and  _208
REMARK   86  A    between atoms: _208  and  _209
REMARK   87  A    between atoms: _208  and  _211
REMARK   88  A    between atoms: _211  and  _212
REMARK   89  A    between atoms: _212  and  _213
REMARK   90  A    between atoms: _213  and  _214
REMARK   91  A    between atoms: _214  and  _215
REMARK   92  A    between atoms: _219  and  _221
REMARK   93  A    between atoms: _221  and  _222
REMARK   94  A    between atoms: _221  and  _224
REMARK   95  A    between atoms: _224  and  _225
REMARK   96  A    between atoms: _228  and  _230
REMARK   97  A    between atoms: _230  and  _231
REMARK   98  A    between atoms: _230  and  _233
REMARK   99  A    between atoms: _233  and  _234
REMARK  100  A    between atoms: _237  and  _239
REMARK  101  A    between atoms: _239  and  _240
REMARK  102  A    between atoms: _239  and  _242
REMARK  103  A    between atoms: _242  and  _243
REMARK  104  A    between atoms: _243  and  _244
REMARK  105  A    between atoms: _246  and  _248
REMARK  106  A    between atoms: _248  and  _249
REMARK  107  A    between atoms: _248  and  _251
REMARK  108  A    between atoms: _251  and  _252
REMARK  109  A    between atoms: _255  and  _257
REMARK  110  A    between atoms: _257  and  _258
REMARK  111  A    between atoms: _261  and  _263
REMARK  112  A    between atoms: _263  and  _264
REMARK  113  A    between atoms: _266  and  _268
REMARK  114  A    between atoms: _268  and  _269
REMARK  115  A    between atoms: _268  and  _271
REMARK  116  A    between atoms: _271  and  _272
REMARK  117  A    between atoms: _272  and  _273
REMARK  118  A    between atoms: _273  and  _274
REMARK  119  A    between atoms: _274  and  _275
REMARK  120  A    between atoms: _279  and  _281
REMARK  121  A    between atoms: _281  and  _282
REMARK  122  A    between atoms: _281  and  _284
REMARK  123  A    between atoms: _284  and  _285
REMARK  124  A    between atoms: _288  and  _290
REMARK  125  A    between atoms: _290  and  _291
REMARK  126  A    between atoms: _290  and  _293
REMARK  127  A    between atoms: _296  and  _298
REMARK  128  A    between atoms: _298  and  _299
REMARK  129  A    between atoms: _298  and  _301
REMARK  130  A    between atoms: _301  and  _302
REMARK  131  A    between atoms: _305  and  _307
REMARK  132  A    between atoms: _307  and  _308
REMARK  133  A    between atoms: _307  and  _310
REMARK  134  A    between atoms: _310  and  _311
REMARK  135  A    between atoms: _314  and  _316
REMARK  136  A    between atoms: _316  and  _317
REMARK  137  A    between atoms: _316  and  _319
REMARK  138  A    between atoms: _319  and  _320
REMARK  139  A    between atoms: _320  and  _321
REMARK  140  A    between atoms: _324  and  _326
REMARK  141  A    between atoms: _326  and  _327
REMARK  142  A    between atoms: _326  and  _329
REMARK  143  A    between atoms: _329  and  _330
REMARK  144  A    between atoms: _333  and  _335
REMARK  145  A    between atoms: _335  and  _336
REMARK  146  A    between atoms: _335  and  _338
REMARK  147  A    between atoms: _341  and  _343
REMARK  148  A    between atoms: _343  and  _344
REMARK  149  A    between atoms: _343  and  _346
REMARK  150  A    between atoms: _346  and  _347
REMARK  151  A    between atoms: _350  and  _352
REMARK  152  A    between atoms: _352  and  _353
REMARK  153  A    between atoms: _352  and  _355
REMARK  154  A    between atoms: _358  and  _360
REMARK  155  A    between atoms: _360  and  _361
REMARK  156  A    between atoms: _360  and  _363
REMARK  157  A    between atoms: _363  and  _364
REMARK  158  A    between atoms: _367  and  _369
REMARK  159  A    between atoms: _369  and  _370
REMARK  160  A    between atoms: _372  and  _374
REMARK  161  A    between atoms: _374  and  _375
REMARK  162  A    between atoms: _374  and  _377
REMARK  163  A    between atoms: _377  and  _378
REMARK  164  A    between atoms: _385  and  _386
REMARK  165  A    between atoms: _391  and  _393
REMARK  166  A    between atoms: _393  and  _394
REMARK  167  A    between atoms: _393  and  _396
REMARK  168  A    between atoms: _396  and  _397
REMARK  169  A    between atoms: _397  and  _398
REMARK  170  A    between atoms: _398  and  _399
REMARK  171  A    between atoms: _408  and  _410
REMARK  172  A    between atoms: _410  and  _411
REMARK  173  A    between atoms: _410  and  _413
REMARK  174  A    between atoms: _413  and  _414
REMARK  175  A    between atoms: _417  and  _419
REMARK  176  A    between atoms: _419  and  _420
REMARK  177  A    between atoms: _419  and  _422
REMARK  178  A    between atoms: _422  and  _423
REMARK  179  A    between atoms: _423  and  _424
REMARK  180  A    between atoms: _429  and  _431
REMARK  181  A    between atoms: _431  and  _432
REMARK  182  A    between atoms: _431  and  _434
REMARK  183  A    between atoms: _434  and  _435
REMARK  184  A    between atoms: _441  and  _443
REMARK  185  A    between atoms: _443  and  _444
REMARK  186  A    between atoms: _443  and  _446
REMARK  187  A    between atoms: _449  and  _451
REMARK  188  A    between atoms: _451  and  _452
REMARK  189  A    between atoms: _451  and  _454
REMARK  190  A    between atoms: _454  and  _455
REMARK  191  A    between atoms: _458  and  _460
REMARK  192  A    between atoms: _460  and  _461
REMARK  193  A    between atoms: _460  and  _463
REMARK  194  A    between atoms: _463  and  _464
REMARK  195  A    between atoms: _467  and  _469
REMARK  196  A    between atoms: _469  and  _470
REMARK  197  A    between atoms: _469  and  _472
REMARK  198  A    between atoms: _475  and  _477
REMARK  199  A    between atoms: _477  and  _478
REMARK  200  A    between atoms: _477  and  _480
REMARK  201  A    between atoms: _480  and  _481
REMARK  202  A    between atoms: _484  and  _486
REMARK  203  A    between atoms: _486  and  _487
REMARK  204  A    between atoms: _486  and  _489
REMARK  205  A    between atoms: _489  and  _490
REMARK  206  A    between atoms: _490  and  _491
REMARK  207  A    between atoms: _491  and  _492
REMARK  208  A    between atoms: _501  and  _503
REMARK  209  A    between atoms: _503  and  _504
REMARK  210  A    between atoms: _503  and  _506
REMARK  211  A    between atoms: _506  and  _507
REMARK  212  A    between atoms: _510  and  _512
REMARK  213  A    between atoms: _512  and  _513
REMARK  214  A    between atoms: _512  and  _515
REMARK  215  A    between atoms: _518  and  _520
REMARK  216  A    between atoms: _520  and  _521
REMARK  217  A    between atoms: _523  and  _525
REMARK  218  A    between atoms: _525  and  _526
REMARK  219  A    between atoms: _525  and  _528
REMARK  220  A    between atoms: _528  and  _529
REMARK  221  A    between atoms: _529  and  _530
REMARK  222  A    between atoms: _530  and  _531
REMARK  223  A    between atoms: _540  and  _542
REMARK  224  A    between atoms: _542  and  _543
REMARK  225  A    between atoms: _542  and  _545
REMARK  226  A    between atoms: _545  and  _546
REMARK  227  A    between atoms: _546  and  _547
REMARK  228  A    between atoms: _547  and  _548
REMARK  229  A    between atoms: _557  and  _559
REMARK  230  A    between atoms: _559  and  _560
REMARK  231  A    between atoms: _559  and  _562
REMARK  232  A    between atoms: _565  and  _567
REMARK  233  A    between atoms: _567  and  _568
REMARK  234  A    between atoms: _570  and  _572
REMARK  235  A    between atoms: _572  and  _573
REMARK  236  A    between atoms: _572  and  _575
REMARK  237  A    between atoms: _575  and  _576
REMARK  238  A    between atoms: _576  and  _577
REMARK  239  A    between atoms: _577  and  _578
REMARK  240  A    between atoms: _587  and  _589
REMARK  241  A    between atoms: _589  and  _590
REMARK  242  A    between atoms: _589  and  _592
REMARK  243  A    between atoms: _595  and  _597
REMARK  244  A    between atoms: _597  and  _598
REMARK  245  A    between atoms: _597  and  _600
REMARK  246  A    between atoms: _600  and  _601
REMARK  247  A    between atoms: _606  and  _607
REMARK  248  A    between atoms: _609  and  _611
REMARK  249  A    between atoms: _611  and  _612
REMARK  250  A    between atoms: _611  and  _614
REMARK  251  A    between atoms: _614  and  _615
REMARK  252  A    between atoms: _620  and  _622
REMARK  253  A    between atoms: _622  and  _623
REMARK  254  A    between atoms: _622  and  _625
REMARK  255  A    between atoms: _628  and  _630
REMARK  256  A    between atoms: _630  and  _631
REMARK  257  A    between atoms: _630  and  _633
REMARK  258  A    between atoms: _633  and  _634
REMARK  259  A    between atoms: _634  and  _635
REMARK  260  A    between atoms: _635  and  _636
REMARK  261  A    between atoms: _636  and  _637
REMARK  262  A    between atoms: _641  and  _643
REMARK  263  A    between atoms: _643  and  _644
REMARK  264  A    between atoms: _643  and  _646
REMARK  265  A    between atoms: _646  and  _647
REMARK  266  A    between atoms: _653  and  _655
REMARK  267  A    between atoms: _655  and  _656
REMARK  268  A    between atoms: _655  and  _658
REMARK  269  A    between atoms: _658  and  _659
REMARK  270  A    between atoms: _665  and  _666
REMARK  271  A    between atoms: _671  and  _673
REMARK  272  A    between atoms: _673  and  _674
REMARK  273  A    between atoms: _673  and  _676
REMARK  274  A    between atoms: _676  and  _677
REMARK  275  A    between atoms: _677  and  _678
REMARK  276  A    between atoms: _678  and  _679
REMARK  277  A    between atoms: _688  and  _690
REMARK  278  A    between atoms: _690  and  _691
REMARK  279  A    between atoms: _690  and  _693
REMARK  280  A    between atoms: _693  and  _694
REMARK  281  A    between atoms: _697  and  _699
REMARK  282  A    between atoms: _699  and  _700
REMARK  283  A    between atoms: _699  and  _702
REMARK  284  A    between atoms: _702  and  _703
REMARK  285  A    between atoms: _706  and  _708
REMARK  286  A    between atoms: _708  and  _709
REMARK  287  A    between atoms: _708  and  _711
REMARK  288  A    between atoms: _711  and  _712
REMARK  289  A    between atoms: _715  and  _717
REMARK  290  A    between atoms: _717  and  _718
REMARK  291  A    between atoms: _717  and  _720
REMARK  292  A    between atoms: _723  and  _725
REMARK  293  A    between atoms: _725  and  _726
REMARK  294  A    between atoms: _725  and  _728
REMARK  295  A    between atoms: _728  and  _729
REMARK  296  A    between atoms: _729  and  _730
REMARK  297  A    between atoms: _730  and  _731
REMARK  298  A    between atoms: _731  and  _732
REMARK  299  A    between atoms: _736  and  _738
REMARK  300  A    between atoms: _738  and  _739
REMARK  301  A    between atoms: _738  and  _741
REMARK  302  A    between atoms: _741  and  _742
REMARK  303  A    between atoms: _742  and  _743
REMARK  304  A    between atoms: _743  and  _744
REMARK  305  A    between atoms: _753  and  _755
REMARK  306  A    between atoms: _755  and  _756
REMARK  307  A    between atoms: _755  and  _758
REMARK  308  A    between atoms: _758  and  _759
REMARK  309  A    between atoms: _762  and  _764
REMARK  310  A    between atoms: _764  and  _765
REMARK  311  A    between atoms: _764  and  _767
REMARK  312  A    between atoms: _767  and  _768
REMARK  313  A    between atoms: _768  and  _769
REMARK  314  A    between atoms: _772  and  _774
REMARK  315  A    between atoms: _774  and  _775
REMARK  316  A    between atoms: _774  and  _777
REMARK  317  A    between atoms: _777  and  _778
REMARK  318  A    between atoms: _788  and  _790
REMARK  319  A    between atoms: _790  and  _791
REMARK  320  A    between atoms: _790  and  _793
REMARK  321  A    between atoms: _793  and  _794
REMARK  322  A    between atoms: _797  and  _799
REMARK  323  A    between atoms: _799  and  _800
REMARK  324  A    between atoms: _799  and  _802
REMARK  325  A    between atoms: _802  and  _803
REMARK  326  A    between atoms: _806  and  _808
REMARK  327  A    between atoms: _808  and  _809
REMARK  328  A    between atoms: _811  and  _813
REMARK  329  A    between atoms: _813  and  _814
REMARK  330  A    between atoms: _813  and  _816
REMARK  331  A    between atoms: _816  and  _817
REMARK  332  A    between atoms: _820  and  _822
REMARK  333  A    between atoms: _822  and  _823
REMARK  334  A    between atoms: _822  and  _825
REMARK  335  A    between atoms: _825  and  _826
REMARK  336  A    between atoms: _826  and  _827
REMARK  337  A    between atoms: _827  and  _828
REMARK  338  A    between atoms: _828  and  _829
REMARK  339  A    between atoms: _834  and  _835
REMARK  340  A    between atoms: _840  and  _842
REMARK  341  A    between atoms: _842  and  _843
REMARK  342  A    between atoms: _842  and  _845
REMARK  343  A    between atoms: _848  and  _850
REMARK  344  A    between atoms: _850  and  _851
REMARK  345  A    between atoms: _854  and  _856
REMARK  346  A    between atoms: _856  and  _857
REMARK  347  A    between atoms: _856  and  _859
REMARK  348  A    between atoms: _859  and  _860
REMARK  349  A    between atoms: _860  and  _861
REMARK  350  A    between atoms: _864  and  _866
REMARK  351  A    between atoms: _866  and  _867
REMARK  352  A    between atoms: _866  and  _869
REMARK  353  A    between atoms: _872  and  _874
REMARK  354  A    between atoms: _874  and  _875
REMARK  355  A    between atoms: _874  and  _877
REMARK  356  A    between atoms: _877  and  _878
REMARK  357  A    between atoms: _878  and  _879
REMARK  358  A    between atoms: _879  and  _880
REMARK                            x       y       z     vdW  Elec       q    Type
REMARK                         _______ _______ _______ _____ _____    ______ ____
ROOT
ATOM      1  O   HOH     1     -20.952  33.587 -46.091  0.00  0.00    +0.000 OA
ENDROOT
TORSDOF 0
REMARK  Name = ../refined-set-2016/4x8o/4x8o_pocket.pdb
REMARK  358 active torsions:
REMARK  status: ('A' for Active; 'I' for Inactive)
REMARK    1  A    between atoms: _1  and  _3
REMARK    2  A    between atoms: _3  and  _4
REMARK    3  A    between atoms: _3  and  _6
REMARK    4  A    between atoms: _6  and  _7
REMARK    5  A    between atoms: _10  and  _12
REMARK    6  A    between atoms: _12  and  _13
REMARK    7  A    between atoms: _12  and  _15
REMARK    8  A    between atoms: _15  and  _16
REMARK    9  A    between atoms: _19  and  _21
REMARK   10  A    between atoms: _21  and  _22
REMARK   11  A    between atoms: _24  and  _26
REMARK   12  A    between atoms: _26  and  _27
REMARK   13  A    between atoms: _31  and  _32
REMARK   14  A    between atoms: _37  and  _39
REMARK   15  A    between atoms: _39  and  _40
REMARK   16  A    between atoms: _42  and  _44
REMARK   17  A    between atoms: _44  and  _45
REMARK   18  A    between atoms: _48  and  _50
REMARK   19  A    between atoms: _50  and  _51
REMARK   20  A    between atoms: _53  and  _55
REMARK   21  A    between atoms: _55  and  _56
REMARK   22  A    between atoms: _55  and  _58
REMARK   23  A    between atoms: _58  and  _59
REMARK   24  A    between atoms: _59  and  _60
REMARK   25  A    between atoms: _60  and  _61
REMARK   26  A    between atoms: _61  and  _62
REMARK   27  A    between atoms: _66  and  _68
REMARK   28  A    between atoms: _68  and  _69
REMARK   29  A    between atoms: _71  and  _73
REMARK   30  A    between atoms: _73  and  _74
REMARK   31  A    between atoms: _73  and  _76
REMARK   32  A    between atoms: _76  and  _77
REMARK   33  A    between atoms: _80  and  _82
REMARK   34  A    between atoms: _82  and  _83
REMARK   35  A    between atoms: _82  and  _85
REMARK   36  A    between atoms: _85  and  _86
REMARK   37  A    between atoms: _86  and  _87
REMARK   38  A    between atoms: _92  and  _94
REMARK   39  A    between atoms: _94  and  _95
REMARK   40  A    between atoms: _98  and  _100
REMARK   41  A    between atoms: _100  and  _101
REMARK   42  A    between atoms: _100  and  _103
REMARK   43  A    between atoms: _103  and  _104
REMARK   44  A    between atoms: _104  and  _105
REMARK   45  A    between atoms: _110  and  _112
REMARK   46  A    between atoms: _112  and  _113
REMARK   47  A    between atoms: _112  and  _115
REMARK   48  A    between atoms: _115  and  _116
REMARK   49  A    between atoms: _122  and  _124
REMARK   50  A    between atoms: _124  and  _125
REMARK   51  A    between atoms: _124  and  _127
REMARK   52  A    between atoms: _127  and  _128
REMARK   53  A    between atoms: _128  and  _129
REMARK   54  A    between atoms: _134  and  _136
REMARK   55  A    between atoms: _136  and  _137
REMARK   56  A    between atoms: _136  and  _139
REMARK   57  A    between atoms: _139  and  _140
REMARK   58  A    between atoms: _142  and  _144
REMARK   59  A    between atoms: _144  and  _145
REMARK   60  A    between atoms: _144  and  _147
REMARK   61  A    between atoms: _147  and  _148
REMARK   62  A    between atoms: _151  and  _153
REMARK   63  A    between atoms: _153  and  _154
REMARK   64  A    between atoms: _156  and  _158
REMARK   65  A    between atoms: _158  and  _159
REMARK   66  A    between atoms: _158  and  _161
REMARK   67  A    between atoms: _161  and  _162
REMARK   68  A    between atoms: _165  and  _167
REMARK   69  A    between atoms: _167  and  _168
REMARK   70  A    between atoms: _167  and  _170
REMARK   71  A    between atoms: _170  and  _171
REMARK   72  A    between atoms: _171  and  _172
REMARK   73  A    between atoms: _174  and  _176
REMARK   74  A    between atoms: _176  and  _177
REMARK   75  A    between atoms: _176  and  _179
REMARK   76  A    between atoms: _179  and  _180
REMARK   77  A    between atoms: _183  and  _185
REMARK   78  A    between atoms: _185  and  _186
REMARK   79  A    between atoms: _185  and  _188
REMARK   80  A    between atoms: _188  and  _189
REMARK   81  A    between atoms: _189  and  _190
REMARK   82  A    between atoms: _190  and  _191
REMARK   83  A    between atoms: _200  and  _202
REMARK   84  A    between atoms: _202  and  _203
REMARK   85  A    between atoms: _206  and  _208
REMARK   86  A    between atoms: _208  and  _209
REMARK   87  A    between atoms: _208  and  _211
REMARK   88  A    between atoms: _211  and  _212
REMARK   89  A    between atoms: _212  and  _213
REMARK   90  A    between atoms: _213  and  _214
REMARK   91  A    between atoms: _214  and  _215
REMARK   92  A    between atoms: _219  and  _221
REMARK   93  A    between atoms: _221  and  _222
REMARK   94  A    between atoms: _221  and  _224
REMARK   95  A    between atoms: _224  and  _225
REMARK   96  A    between atoms: _228  and  _230
REMARK   97  A    between atoms: _230  and  _231
REMARK   98  A    between atoms: _230  and  _233
REMARK   99  A    between atoms: _233  and  _234
REMARK  100  A    between atoms: _237  and  _239
REMARK  101  A    between atoms: _239  and  _240
REMARK  102  A    between atoms: _239  and  _242
REMARK  103  A    between atoms: _242  and  _243
REMARK  104  A    between atoms: _243  and  _244
REMARK  105  A    between atoms: _246  and  _248
REMARK  106  A    between atoms: _248  and  _249
REMARK  107  A    between atoms: _248  and  _251
REMARK  108  A    between atoms: _251  and  _252
REMARK  109  A    between atoms: _255  and  _257
REMARK  110  A    between atoms: _257  and  _258
REMARK  111  A    between atoms: _261  and  _263
REMARK  112  A    between atoms: _263  and  _264
REMARK  113  A    between atoms: _266  and  _268
REMARK  114  A    between atoms: _268  and  _269
REMARK  115  A    between atoms: _268  and  _271
REMARK  116  A    between atoms: _271  and  _272
REMARK  117  A    between atoms: _272  and  _273
REMARK  118  A    between atoms: _273  and  _274
REMARK  119  A    between atoms: _274  and  _275
REMARK  120  A    between atoms: _279  and  _281
REMARK  121  A    between atoms: _281  and  _282
REMARK  122  A    between atoms: _281  and  _284
REMARK  123  A    between atoms: _284  and  _285
REMARK  124  A    between atoms: _288  and  _290
REMARK  125  A    between atoms: _290  and  _291
REMARK  126  A    between atoms: _290  and  _293
REMARK  127  A    between atoms: _296  and  _298
REMARK  128  A    between atoms: _298  and  _299
REMARK  129  A    between atoms: _298  and  _301
REMARK  130  A    between atoms: _301  and  _302
REMARK  131  A    between atoms: _305  and  _307
REMARK  132  A    between atoms: _307  and  _308
REMARK  133  A    between atoms: _307  and  _310
REMARK  134  A    between atoms: _310  and  _311
REMARK  135  A    between atoms: _314  and  _316
REMARK  136  A    between atoms: _316  and  _317
REMARK  137  A    between atoms: _316  and  _319
REMARK  138  A    between atoms: _319  and  _320
REMARK  139  A    between atoms: _320  and  _321
REMARK  140  A    between atoms: _324  and  _326
REMARK  141  A    between atoms: _326  and  _327
REMARK  142  A    between atoms: _326  and  _329
REMARK  143  A    between atoms: _329  and  _330
REMARK  144  A    between atoms: _333  and  _335
REMARK  145  A    between atoms: _335  and  _336
REMARK  146  A    between atoms: _335  and  _338
REMARK  147  A    between atoms: _341  and  _343
REMARK  148  A    between atoms: _343  and  _344
REMARK  149  A    between atoms: _343  and  _346
REMARK  150  A    between atoms: _346  and  _347
REMARK  151  A    between atoms: _350  and  _352
REMARK  152  A    between atoms: _352  and  _353
REMARK  153  A    between atoms: _352  and  _355
REMARK  154  A    between atoms: _358  and  _360
REMARK  155  A    between atoms: _360  and  _361
REMARK  156  A    between atoms: _360  and  _363
REMARK  157  A    between atoms: _363  and  _364
REMARK  158  A    between atoms: _367  and  _369
REMARK  159  A    between atoms: _369  and  _370
REMARK  160  A    between atoms: _372  and  _374
REMARK  161  A    between atoms: _374  and  _375
REMARK  162  A    between atoms: _374  and  _377
REMARK  163  A    between atoms: _377  and  _378
REMARK  164  A    between atoms: _385  and  _386
REMARK  165  A    between atoms: _391  and  _393
REMARK  166  A    between atoms: _393  and  _394
REMARK  167  A    between atoms: _393  and  _396
REMARK  168  A    between atoms: _396  and  _397
REMARK  169  A    between atoms: _397  and  _398
REMARK  170  A    between atoms: _398  and  _399
REMARK  171  A    between atoms: _408  and  _410
REMARK  172  A    between atoms: _410  and  _411
REMARK  173  A    between atoms: _410  and  _413
REMARK  174  A    between atoms: _413  and  _414
REMARK  175  A    between atoms: _417  and  _419
REMARK  176  A    between atoms: _419  and  _420
REMARK  177  A    between atoms: _419  and  _422
REMARK  178  A    between atoms: _422  and  _423
REMARK  179  A    between atoms: _423  and  _424
REMARK  180  A    between atoms: _429  and  _431
REMARK  181  A    between atoms: _431  and  _432
REMARK  182  A    between atoms: _431  and  _434
REMARK  183  A    between atoms: _434  and  _435
REMARK  184  A    between atoms: _441  and  _443
REMARK  185  A    between atoms: _443  and  _444
REMARK  186  A    between atoms: _443  and  _446
REMARK  187  A    between atoms: _449  and  _451
REMARK  188  A    between atoms: _451  and  _452
REMARK  189  A    between atoms: _451  and  _454
REMARK  190  A    between atoms: _454  and  _455
REMARK  191  A    between atoms: _458  and  _460
REMARK  192  A    between atoms: _460  and  _461
REMARK  193  A    between atoms: _460  and  _463
REMARK  194  A    between atoms: _463  and  _464
REMARK  195  A    between atoms: _467  and  _469
REMARK  196  A    between atoms: _469  and  _470
REMARK  197  A    between atoms: _469  and  _472
REMARK  198  A    between atoms: _475  and  _477
REMARK  199  A    between atoms: _477  and  _478
REMARK  200  A    between atoms: _477  and  _480
REMARK  201  A    between atoms: _480  and  _481
REMARK  202  A    between atoms: _484  and  _486
REMARK  203  A    between atoms: _486  and  _487
REMARK  204  A    between atoms: _486  and  _489
REMARK  205  A    between atoms: _489  and  _490
REMARK  206  A    between atoms: _490  and  _491
REMARK  207  A    between atoms: _491  and  _492
REMARK  208  A    between atoms: _501  and  _503
REMARK  209  A    between atoms: _503  and  _504
REMARK  210  A    between atoms: _503  and  _506
REMARK  211  A    between atoms: _506  and  _507
REMARK  212  A    between atoms: _510  and  _512
REMARK  213  A    between atoms: _512  and  _513
REMARK  214  A    between atoms: _512  and  _515
REMARK  215  A    between atoms: _518  and  _520
REMARK  216  A    between atoms: _520  and  _521
REMARK  217  A    between atoms: _523  and  _525
REMARK  218  A    between atoms: _525  and  _526
REMARK  219  A    between atoms: _525  and  _528
REMARK  220  A    between atoms: _528  and  _529
REMARK  221  A    between atoms: _529  and  _530
REMARK  222  A    between atoms: _530  and  _531
REMARK  223  A    between atoms: _540  and  _542
REMARK  224  A    between atoms: _542  and  _543
REMARK  225  A    between atoms: _542  and  _545
REMARK  226  A    between atoms: _545  and  _546
REMARK  227  A    between atoms: _546  and  _547
REMARK  228  A    between atoms: _547  and  _548
REMARK  229  A    between atoms: _557  and  _559
REMARK  230  A    between atoms: _559  and  _560
REMARK  231  A    between atoms: _559  and  _562
REMARK  232  A    between atoms: _565  and  _567
REMARK  233  A    between atoms: _567  and  _568
REMARK  234  A    between atoms: _570  and  _572
REMARK  235  A    between atoms: _572  and  _573
REMARK  236  A    between atoms: _572  and  _575
REMARK  237  A    between atoms: _575  and  _576
REMARK  238  A    between atoms: _576  and  _577
REMARK  239  A    between atoms: _577  and  _578
REMARK  240  A    between atoms: _587  and  _589
REMARK  241  A    between atoms: _589  and  _590
REMARK  242  A    between atoms: _589  and  _592
REMARK  243  A    between atoms: _595  and  _597
REMARK  244  A    between atoms: _597  and  _598
REMARK  245  A    between atoms: _597  and  _600
REMARK  246  A    between atoms: _600  and  _601
REMARK  247  A    between atoms: _606  and  _607
REMARK  248  A    between atoms: _609  and  _611
REMARK  249  A    between atoms: _611  and  _612
REMARK  250  A    between atoms: _611  and  _614
REMARK  251  A    between atoms: _614  and  _615
REMARK  252  A    between atoms: _620  and  _622
REMARK  253  A    between atoms: _622  and  _623
REMARK  254  A    between atoms: _622  and  _625
REMARK  255  A    between atoms: _628  and  _630
REMARK  256  A    between atoms: _630  and  _631
REMARK  257  A    between atoms: _630  and  _633
REMARK  258  A    between atoms: _633  and  _634
REMARK  259  A    between atoms: _634  and  _635
REMARK  260  A    between atoms: _635  and  _636
REMARK  261  A    between atoms: _636  and  _637
REMARK  262  A    between atoms: _641  and  _643
REMARK  263  A    between atoms: _643  and  _644
REMARK  264  A    between atoms: _643  and  _646
REMARK  265  A    between atoms: _646  and  _647
REMARK  266  A    between atoms: _653  and  _655
REMARK  267  A    between atoms: _655  and  _656
REMARK  268  A    between atoms: _655  and  _658
REMARK  269  A    between atoms: _658  and  _659
REMARK  270  A    between atoms: _665  and  _666
REMARK  271  A    between atoms: _671  and  _673
REMARK  272  A    between atoms: _673  and  _674
REMARK  273  A    between atoms: _673  and  _676
REMARK  274  A    between atoms: _676  and  _677
REMARK  275  A    between atoms: _677  and  _678
REMARK  276  A    between atoms: _678  and  _679
REMARK  277  A    between atoms: _688  and  _690
REMARK  278  A    between atoms: _690  and  _691
REMARK  279  A    between atoms: _690  and  _693
REMARK  280  A    between atoms: _693  and  _694
REMARK  281  A    between atoms: _697  and  _699
REMARK  282  A    between atoms: _699  and  _700
REMARK  283  A    between atoms: _699  and  _702
REMARK  284  A    between atoms: _702  and  _703
REMARK  285  A    between atoms: _706  and  _708
REMARK  286  A    between atoms: _708  and  _709
REMARK  287  A    between atoms: _708  and  _711
REMARK  288  A    between atoms: _711  and  _712
REMARK  289  A    between atoms: _715  and  _717
REMARK  290  A    between atoms: _717  and  _718
REMARK  291  A    between atoms: _717  and  _720
REMARK  292  A    between atoms: _723  and  _725
REMARK  293  A    between atoms: _725  and  _726
REMARK  294  A    between atoms: _725  and  _728
REMARK  295  A    between atoms: _728  and  _729
REMARK  296  A    between atoms: _729  and  _730
REMARK  297  A    between atoms: _730  and  _731
REMARK  298  A    between atoms: _731  and  _732
REMARK  299  A    between atoms: _736  and  _738
REMARK  300  A    between atoms: _738  and  _739
REMARK  301  A    between atoms: _738  and  _741
REMARK  302  A    between atoms: _741  and  _742
REMARK  303  A    between atoms: _742  and  _743
REMARK  304  A    between atoms: _743  and  _744
REMARK  305  A    between atoms: _753  and  _755
REMARK  306  A    between atoms: _755  and  _756
REMARK  307  A    between atoms: _755  and  _758
REMARK  308  A    between atoms: _758  and  _759
REMARK  309  A    between atoms: _762  and  _764
REMARK  310  A    between atoms: _764  and  _765
REMARK  311  A    between atoms: _764  and  _767
REMARK  312  A    between atoms: _767  and  _768
REMARK  313  A    between atoms: _768  and  _769
REMARK  314  A    between atoms: _772  and  _774
REMARK  315  A    between atoms: _774  and  _775
REMARK  316  A    between atoms: _774  and  _777
REMARK  317  A    between atoms: _777  and  _778
REMARK  318  A    between atoms: _788  and  _790
REMARK  319  A    between atoms: _790  and  _791
REMARK  320  A    between atoms: _790  and  _793
REMARK  321  A    between atoms: _793  and  _794
REMARK  322  A    between atoms: _797  and  _799
REMARK  323  A    between atoms: _799  and  _800
REMARK  324  A    between atoms: _799  and  _802
REMARK  325  A    between atoms: _802  and  _803
REMARK  326  A    between atoms: _806  and  _808
REMARK  327  A    between atoms: _808  and  _809
REMARK  328  A    between atoms: _811  and  _813
REMARK  329  A    between atoms: _813  and  _814
REMARK  330  A    between atoms: _813  and  _816
REMARK  331  A    between atoms: _816  and  _817
REMARK  332  A    between atoms: _820  and  _822
REMARK  333  A    between atoms: _822  and  _823
REMARK  334  A    between atoms: _822  and  _825
REMARK  335  A    between atoms: _825  and  _826
REMARK  336  A    between atoms: _826  and  _827
REMARK  337  A    between atoms: _827  and  _828
REMARK  338  A    between atoms: _828  and  _829
REMARK  339  A    between atoms: _834  and  _835
REMARK  340  A    between atoms: _840  and  _842
REMARK  341  A    between atoms: _842  and  _843
REMARK  342  A    between atoms: _842  and  _845
REMARK  343  A    between atoms: _848  and  _850
REMARK  344  A    between atoms: _850  and  _851
REMARK  345  A    between atoms: _854  and  _856
REMARK  346  A    between atoms: _856  and  _857
REMARK  347  A    between atoms: _856  and  _859
REMARK  348  A    between atoms: _859  and  _860
REMARK  349  A    between atoms: _860  and  _861
REMARK  350  A    between atoms: _864  and  _866
REMARK  351  A    between atoms: _866  and  _867
REMARK  352  A    between atoms: _866  and  _869
REMARK  353  A    between atoms: _872  and  _874
REMARK  354  A    between atoms: _874  and  _875
REMARK  355  A    between atoms: _874  and  _877
REMARK  356  A    between atoms: _877  and  _878
REMARK  357  A    between atoms: _878  and  _879
REMARK  358  A    between atoms: _879  and  _880
REMARK                            x       y       z     vdW  Elec       q    Type
REMARK                         _______ _______ _______ _____ _____    ______ ____
ROOT
ATOM      1  O   HOH     1     -20.334  30.053 -44.665  0.00  0.00    +0.000 OA
ENDROOT
TORSDOF 0
REMARK  Name = ../refined-set-2016/4x8o/4x8o_pocket.pdb
REMARK  358 active torsions:
REMARK  status: ('A' for Active; 'I' for Inactive)
REMARK    1  A    between atoms: _1  and  _3
REMARK    2  A    between atoms: _3  and  _4
REMARK    3  A    between atoms: _3  and  _6
REMARK    4  A    between atoms: _6  and  _7
REMARK    5  A    between atoms: _10  and  _12
REMARK    6  A    between atoms: _12  and  _13
REMARK    7  A    between atoms: _12  and  _15
REMARK    8  A    between atoms: _15  and  _16
REMARK    9  A    between atoms: _19  and  _21
REMARK   10  A    between atoms: _21  and  _22
REMARK   11  A    between atoms: _24  and  _26
REMARK   12  A    between atoms: _26  and  _27
REMARK   13  A    between atoms: _31  and  _32
REMARK   14  A    between atoms: _37  and  _39
REMARK   15  A    between atoms: _39  and  _40
REMARK   16  A    between atoms: _42  and  _44
REMARK   17  A    between atoms: _44  and  _45
REMARK   18  A    between atoms: _48  and  _50
REMARK   19  A    between atoms: _50  and  _51
REMARK   20  A    between atoms: _53  and  _55
REMARK   21  A    between atoms: _55  and  _56
REMARK   22  A    between atoms: _55  and  _58
REMARK   23  A    between atoms: _58  and  _59
REMARK   24  A    between atoms: _59  and  _60
REMARK   25  A    between atoms: _60  and  _61
REMARK   26  A    between atoms: _61  and  _62
REMARK   27  A    between atoms: _66  and  _68
REMARK   28  A    between atoms: _68  and  _69
REMARK   29  A    between atoms: _71  and  _73
REMARK   30  A    between atoms: _73  and  _74
REMARK   31  A    between atoms: _73  and  _76
REMARK   32  A    between atoms: _76  and  _77
REMARK   33  A    between atoms: _80  and  _82
REMARK   34  A    between atoms: _82  and  _83
REMARK   35  A    between atoms: _82  and  _85
REMARK   36  A    between atoms: _85  and  _86
REMARK   37  A    between atoms: _86  and  _87
REMARK   38  A    between atoms: _92  and  _94
REMARK   39  A    between atoms: _94  and  _95
REMARK   40  A    between atoms: _98  and  _100
REMARK   41  A    between atoms: _100  and  _101
REMARK   42  A    between atoms: _100  and  _103
REMARK   43  A    between atoms: _103  and  _104
REMARK   44  A    between atoms: _104  and  _105
REMARK   45  A    between atoms: _110  and  _112
REMARK   46  A    between atoms: _112  and  _113
REMARK   47  A    between atoms: _112  and  _115
REMARK   48  A    between atoms: _115  and  _116
REMARK   49  A    between atoms: _122  and  _124
REMARK   50  A    between atoms: _124  and  _125
REMARK   51  A    between atoms: _124  and  _127
REMARK   52  A    between atoms: _127  and  _128
REMARK   53  A    between atoms: _128  and  _129
REMARK   54  A    between atoms: _134  and  _136
REMARK   55  A    between atoms: _136  and  _137
REMARK   56  A    between atoms: _136  and  _139
REMARK   57  A    between atoms: _139  and  _140
REMARK   58  A    between atoms: _142  and  _144
REMARK   59  A    between atoms: _144  and  _145
REMARK   60  A    between atoms: _144  and  _147
REMARK   61  A    between atoms: _147  and  _148
REMARK   62  A    between atoms: _151  and  _153
REMARK   63  A    between atoms: _153  and  _154
REMARK   64  A    between atoms: _156  and  _158
REMARK   65  A    between atoms: _158  and  _159
REMARK   66  A    between atoms: _158  and  _161
REMARK   67  A    between atoms: _161  and  _162
REMARK   68  A    between atoms: _165  and  _167
REMARK   69  A    between atoms: _167  and  _168
REMARK   70  A    between atoms: _167  and  _170
REMARK   71  A    between atoms: _170  and  _171
REMARK   72  A    between atoms: _171  and  _172
REMARK   73  A    between atoms: _174  and  _176
REMARK   74  A    between atoms: _176  and  _177
REMARK   75  A    between atoms: _176  and  _179
REMARK   76  A    between atoms: _179  and  _180
REMARK   77  A    between atoms: _183  and  _185
REMARK   78  A    between atoms: _185  and  _186
REMARK   79  A    between atoms: _185  and  _188
REMARK   80  A    between atoms: _188  and  _189
REMARK   81  A    between atoms: _189  and  _190
REMARK   82  A    between atoms: _190  and  _191
REMARK   83  A    between atoms: _200  and  _202
REMARK   84  A    between atoms: _202  and  _203
REMARK   85  A    between atoms: _206  and  _208
REMARK   86  A    between atoms: _208  and  _209
REMARK   87  A    between atoms: _208  and  _211
REMARK   88  A    between atoms: _211  and  _212
REMARK   89  A    between atoms: _212  and  _213
REMARK   90  A    between atoms: _213  and  _214
REMARK   91  A    between atoms: _214  and  _215
REMARK   92  A    between atoms: _219  and  _221
REMARK   93  A    between atoms: _221  and  _222
REMARK   94  A    between atoms: _221  and  _224
REMARK   95  A    between atoms: _224  and  _225
REMARK   96  A    between atoms: _228  and  _230
REMARK   97  A    between atoms: _230  and  _231
REMARK   98  A    between atoms: _230  and  _233
REMARK   99  A    between atoms: _233  and  _234
REMARK  100  A    between atoms: _237  and  _239
REMARK  101  A    between atoms: _239  and  _240
REMARK  102  A    between atoms: _239  and  _242
REMARK  103  A    between atoms: _242  and  _243
REMARK  104  A    between atoms: _243  and  _244
REMARK  105  A    between atoms: _246  and  _248
REMARK  106  A    between atoms: _248  and  _249
REMARK  107  A    between atoms: _248  and  _251
REMARK  108  A    between atoms: _251  and  _252
REMARK  109  A    between atoms: _255  and  _257
REMARK  110  A    between atoms: _257  and  _258
REMARK  111  A    between atoms: _261  and  _263
REMARK  112  A    between atoms: _263  and  _264
REMARK  113  A    between atoms: _266  and  _268
REMARK  114  A    between atoms: _268  and  _269
REMARK  115  A    between atoms: _268  and  _271
REMARK  116  A    between atoms: _271  and  _272
REMARK  117  A    between atoms: _272  and  _273
REMARK  118  A    between atoms: _273  and  _274
REMARK  119  A    between atoms: _274  and  _275
REMARK  120  A    between atoms: _279  and  _281
REMARK  121  A    between atoms: _281  and  _282
REMARK  122  A    between atoms: _281  and  _284
REMARK  123  A    between atoms: _284  and  _285
REMARK  124  A    between atoms: _288  and  _290
REMARK  125  A    between atoms: _290  and  _291
REMARK  126  A    between atoms: _290  and  _293
REMARK  127  A    between atoms: _296  and  _298
REMARK  128  A    between atoms: _298  and  _299
REMARK  129  A    between atoms: _298  and  _301
REMARK  130  A    between atoms: _301  and  _302
REMARK  131  A    between atoms: _305  and  _307
REMARK  132  A    between atoms: _307  and  _308
REMARK  133  A    between atoms: _307  and  _310
REMARK  134  A    between atoms: _310  and  _311
REMARK  135  A    between atoms: _314  and  _316
REMARK  136  A    between atoms: _316  and  _317
REMARK  137  A    between atoms: _316  and  _319
REMARK  138  A    between atoms: _319  and  _320
REMARK  139  A    between atoms: _320  and  _321
REMARK  140  A    between atoms: _324  and  _326
REMARK  141  A    between atoms: _326  and  _327
REMARK  142  A    between atoms: _326  and  _329
REMARK  143  A    between atoms: _329  and  _330
REMARK  144  A    between atoms: _333  and  _335
REMARK  145  A    between atoms: _335  and  _336
REMARK  146  A    between atoms: _335  and  _338
REMARK  147  A    between atoms: _341  and  _343
REMARK  148  A    between atoms: _343  and  _344
REMARK  149  A    between atoms: _343  and  _346
REMARK  150  A    between atoms: _346  and  _347
REMARK  151  A    between atoms: _350  and  _352
REMARK  152  A    between atoms: _352  and  _353
REMARK  153  A    between atoms: _352  and  _355
REMARK  154  A    between atoms: _358  and  _360
REMARK  155  A    between atoms: _360  and  _361
REMARK  156  A    between atoms: _360  and  _363
REMARK  157  A    between atoms: _363  and  _364
REMARK  158  A    between atoms: _367  and  _369
REMARK  159  A    between atoms: _369  and  _370
REMARK  160  A    between atoms: _372  and  _374
REMARK  161  A    between atoms: _374  and  _375
REMARK  162  A    between atoms: _374  and  _377
REMARK  163  A    between atoms: _377  and  _378
REMARK  164  A    between atoms: _385  and  _386
REMARK  165  A    between atoms: _391  and  _393
REMARK  166  A    between atoms: _393  and  _394
REMARK  167  A    between atoms: _393  and  _396
REMARK  168  A    between atoms: _396  and  _397
REMARK  169  A    between atoms: _397  and  _398
REMARK  170  A    between atoms: _398  and  _399
REMARK  171  A    between atoms: _408  and  _410
REMARK  172  A    between atoms: _410  and  _411
REMARK  173  A    between atoms: _410  and  _413
REMARK  174  A    between atoms: _413  and  _414
REMARK  175  A    between atoms: _417  and  _419
REMARK  176  A    between atoms: _419  and  _420
REMARK  177  A    between atoms: _419  and  _422
REMARK  178  A    between atoms: _422  and  _423
REMARK  179  A    between atoms: _423  and  _424
REMARK  180  A    between atoms: _429  and  _431
REMARK  181  A    between atoms: _431  and  _432
REMARK  182  A    between atoms: _431  and  _434
REMARK  183  A    between atoms: _434  and  _435
REMARK  184  A    between atoms: _441  and  _443
REMARK  185  A    between atoms: _443  and  _444
REMARK  186  A    between atoms: _443  and  _446
REMARK  187  A    between atoms: _449  and  _451
REMARK  188  A    between atoms: _451  and  _452
REMARK  189  A    between atoms: _451  and  _454
REMARK  190  A    between atoms: _454  and  _455
REMARK  191  A    between atoms: _458  and  _460
REMARK  192  A    between atoms: _460  and  _461
REMARK  193  A    between atoms: _460  and  _463
REMARK  194  A    between atoms: _463  and  _464
REMARK  195  A    between atoms: _467  and  _469
REMARK  196  A    between atoms: _469  and  _470
REMARK  197  A    between atoms: _469  and  _472
REMARK  198  A    between atoms: _475  and  _477
REMARK  199  A    between atoms: _477  and  _478
REMARK  200  A    between atoms: _477  and  _480
REMARK  201  A    between atoms: _480  and  _481
REMARK  202  A    between atoms: _484  and  _486
REMARK  203  A    between atoms: _486  and  _487
REMARK  204  A    between atoms: _486  and  _489
REMARK  205  A    between atoms: _489  and  _490
REMARK  206  A    between atoms: _490  and  _491
REMARK  207  A    between atoms: _491  and  _492
REMARK  208  A    between atoms: _501  and  _503
REMARK  209  A    between atoms: _503  and  _504
REMARK  210  A    between atoms: _503  and  _506
REMARK  211  A    between atoms: _506  and  _507
REMARK  212  A    between atoms: _510  and  _512
REMARK  213  A    between atoms: _512  and  _513
REMARK  214  A    between atoms: _512  and  _515
REMARK  215  A    between atoms: _518  and  _520
REMARK  216  A    between atoms: _520  and  _521
REMARK  217  A    between atoms: _523  and  _525
REMARK  218  A    between atoms: _525  and  _526
REMARK  219  A    between atoms: _525  and  _528
REMARK  220  A    between atoms: _528  and  _529
REMARK  221  A    between atoms: _529  and  _530
REMARK  222  A    between atoms: _530  and  _531
REMARK  223  A    between atoms: _540  and  _542
REMARK  224  A    between atoms: _542  and  _543
REMARK  225  A    between atoms: _542  and  _545
REMARK  226  A    between atoms: _545  and  _546
REMARK  227  A    between atoms: _546  and  _547
REMARK  228  A    between atoms: _547  and  _548
REMARK  229  A    between atoms: _557  and  _559
REMARK  230  A    between atoms: _559  and  _560
REMARK  231  A    between atoms: _559  and  _562
REMARK  232  A    between atoms: _565  and  _567
REMARK  233  A    between atoms: _567  and  _568
REMARK  234  A    between atoms: _570  and  _572
REMARK  235  A    between atoms: _572  and  _573
REMARK  236  A    between atoms: _572  and  _575
REMARK  237  A    between atoms: _575  and  _576
REMARK  238  A    between atoms: _576  and  _577
REMARK  239  A    between atoms: _577  and  _578
REMARK  240  A    between atoms: _587  and  _589
REMARK  241  A    between atoms: _589  and  _590
REMARK  242  A    between atoms: _589  and  _592
REMARK  243  A    between atoms: _595  and  _597
REMARK  244  A    between atoms: _597  and  _598
REMARK  245  A    between atoms: _597  and  _600
REMARK  246  A    between atoms: _600  and  _601
REMARK  247  A    between atoms: _606  and  _607
REMARK  248  A    between atoms: _609  and  _611
REMARK  249  A    between atoms: _611  and  _612
REMARK  250  A    between atoms: _611  and  _614
REMARK  251  A    between atoms: _614  and  _615
REMARK  252  A    between atoms: _620  and  _622
REMARK  253  A    between atoms: _622  and  _623
REMARK  254  A    between atoms: _622  and  _625
REMARK  255  A    between atoms: _628  and  _630
REMARK  256  A    between atoms: _630  and  _631
REMARK  257  A    between atoms: _630  and  _633
REMARK  258  A    between atoms: _633  and  _634
REMARK  259  A    between atoms: _634  and  _635
REMARK  260  A    between atoms: _635  and  _636
REMARK  261  A    between atoms: _636  and  _637
REMARK  262  A    between atoms: _641  and  _643
REMARK  263  A    between atoms: _643  and  _644
REMARK  264  A    between atoms: _643  and  _646
REMARK  265  A    between atoms: _646  and  _647
REMARK  266  A    between atoms: _653  and  _655
REMARK  267  A    between atoms: _655  and  _656
REMARK  268  A    between atoms: _655  and  _658
REMARK  269  A    between atoms: _658  and  _659
REMARK  270  A    between atoms: _665  and  _666
REMARK  271  A    between atoms: _671  and  _673
REMARK  272  A    between atoms: _673  and  _674
REMARK  273  A    between atoms: _673  and  _676
REMARK  274  A    between atoms: _676  and  _677
REMARK  275  A    between atoms: _677  and  _678
REMARK  276  A    between atoms: _678  and  _679
REMARK  277  A    between atoms: _688  and  _690
REMARK  278  A    between atoms: _690  and  _691
REMARK  279  A    between atoms: _690  and  _693
REMARK  280  A    between atoms: _693  and  _694
REMARK  281  A    between atoms: _697  and  _699
REMARK  282  A    between atoms: _699  and  _700
REMARK  283  A    between atoms: _699  and  _702
REMARK  284  A    between atoms: _702  and  _703
REMARK  285  A    between atoms: _706  and  _708
REMARK  286  A    between atoms: _708  and  _709
REMARK  287  A    between atoms: _708  and  _711
REMARK  288  A    between atoms: _711  and  _712
REMARK  289  A    between atoms: _715  and  _717
REMARK  290  A    between atoms: _717  and  _718
REMARK  291  A    between atoms: _717  and  _720
REMARK  292  A    between atoms: _723  and  _725
REMARK  293  A    between atoms: _725  and  _726
REMARK  294  A    between atoms: _725  and  _728
REMARK  295  A    between atoms: _728  and  _729
REMARK  296  A    between atoms: _729  and  _730
REMARK  297  A    between atoms: _730  and  _731
REMARK  298  A    between atoms: _731  and  _732
REMARK  299  A    between atoms: _736  and  _738
REMARK  300  A    between atoms: _738  and  _739
REMARK  301  A    between atoms: _738  and  _741
REMARK  302  A    between atoms: _741  and  _742
REMARK  303  A    between atoms: _742  and  _743
REMARK  304  A    between atoms: _743  and  _744
REMARK  305  A    between atoms: _753  and  _755
REMARK  306  A    between atoms: _755  and  _756
REMARK  307  A    between atoms: _755  and  _758
REMARK  308  A    between atoms: _758  and  _759
REMARK  309  A    between atoms: _762  and  _764
REMARK  310  A    between atoms: _764  and  _765
REMARK  311  A    between atoms: _764  and  _767
REMARK  312  A    between atoms: _767  and  _768
REMARK  313  A    between atoms: _768  and  _769
REMARK  314  A    between atoms: _772  and  _774
REMARK  315  A    between atoms: _774  and  _775
REMARK  316  A    between atoms: _774  and  _777
REMARK  317  A    between atoms: _777  and  _778
REMARK  318  A    between atoms: _788  and  _790
REMARK  319  A    between atoms: _790  and  _791
REMARK  320  A    between atoms: _790  and  _793
REMARK  321  A    between atoms: _793  and  _794
REMARK  322  A    between atoms: _797  and  _799
REMARK  323  A    between atoms: _799  and  _800
REMARK  324  A    between atoms: _799  and  _802
REMARK  325  A    between atoms: _802  and  _803
REMARK  326  A    between atoms: _806  and  _808
REMARK  327  A    between atoms: _808  and  _809
REMARK  328  A    between atoms: _811  and  _813
REMARK  329  A    between atoms: _813  and  _814
REMARK  330  A    between atoms: _813  and  _816
REMARK  331  A    between atoms: _816  and  _817
REMARK  332  A    between atoms: _820  and  _822
REMARK  333  A    between atoms: _822  and  _823
REMARK  334  A    between atoms: _822  and  _825
REMARK  335  A    between atoms: _825  and  _826
REMARK  336  A    between atoms: _826  and  _827
REMARK  337  A    between atoms: _827  and  _828
REMARK  338  A    between atoms: _828  and  _829
REMARK  339  A    between atoms: _834  and  _835
REMARK  340  A    between atoms: _840  and  _842
REMARK  341  A    between atoms: _842  and  _843
REMARK  342  A    between atoms: _842  and  _845
REMARK  343  A    between atoms: _848  and  _850
REMARK  344  A    between atoms: _850  and  _851
REMARK  345  A    between atoms: _854  and  _856
REMARK  346  A    between atoms: _856  and  _857
REMARK  347  A    between atoms: _856  and  _859
REMARK  348  A    between atoms: _859  and  _860
REMARK  349  A    between atoms: _860  and  _861
REMARK  350  A    between atoms: _864  and  _866
REMARK  351  A    between atoms: _866  and  _867
REMARK  352  A    between atoms: _866  and  _869
REMARK  353  A    between atoms: _872  and  _874
REMARK  354  A    between atoms: _874  and  _875
REMARK  355  A    between atoms: _874  and  _877
REMARK  356  A    between atoms: _877  and  _878
REMARK  357  A    between atoms: _878  and  _879
REMARK  358  A    between atoms: _879  and  _880
REMARK                            x       y       z     vdW  Elec       q    Type
REMARK                         _______ _______ _______ _____ _____    ______ ____
ROOT
ATOM      1  O   HOH     1     -25.550  23.740 -33.642  0.00  0.00    +0.000 OA
ENDROOT
TORSDOF 0
REMARK  Name = ../refined-set-2016/4x8o/4x8o_pocket.pdb
REMARK  358 active torsions:
REMARK  status: ('A' for Active; 'I' for Inactive)
REMARK    1  A    between atoms: _1  and  _3
REMARK    2  A    between atoms: _3  and  _4
REMARK    3  A    between atoms: _3  and  _6
REMARK    4  A    between atoms: _6  and  _7
REMARK    5  A    between atoms: _10  and  _12
REMARK    6  A    between atoms: _12  and  _13
REMARK    7  A    between atoms: _12  and  _15
REMARK    8  A    between atoms: _15  and  _16
REMARK    9  A    between atoms: _19  and  _21
REMARK   10  A    between atoms: _21  and  _22
REMARK   11  A    between atoms: _24  and  _26
REMARK   12  A    between atoms: _26  and  _27
REMARK   13  A    between atoms: _31  and  _32
REMARK   14  A    between atoms: _37  and  _39
REMARK   15  A    between atoms: _39  and  _40
REMARK   16  A    between atoms: _42  and  _44
REMARK   17  A    between atoms: _44  and  _45
REMARK   18  A    between atoms: _48  and  _50
REMARK   19  A    between atoms: _50  and  _51
REMARK   20  A    between atoms: _53  and  _55
REMARK   21  A    between atoms: _55  and  _56
REMARK   22  A    between atoms: _55  and  _58
REMARK   23  A    between atoms: _58  and  _59
REMARK   24  A    between atoms: _59  and  _60
REMARK   25  A    between atoms: _60  and  _61
REMARK   26  A    between atoms: _61  and  _62
REMARK   27  A    between atoms: _66  and  _68
REMARK   28  A    between atoms: _68  and  _69
REMARK   29  A    between atoms: _71  and  _73
REMARK   30  A    between atoms: _73  and  _74
REMARK   31  A    between atoms: _73  and  _76
REMARK   32  A    between atoms: _76  and  _77
REMARK   33  A    between atoms: _80  and  _82
REMARK   34  A    between atoms: _82  and  _83
REMARK   35  A    between atoms: _82  and  _85
REMARK   36  A    between atoms: _85  and  _86
REMARK   37  A    between atoms: _86  and  _87
REMARK   38  A    between atoms: _92  and  _94
REMARK   39  A    between atoms: _94  and  _95
REMARK   40  A    between atoms: _98  and  _100
REMARK   41  A    between atoms: _100  and  _101
REMARK   42  A    between atoms: _100  and  _103
REMARK   43  A    between atoms: _103  and  _104
REMARK   44  A    between atoms: _104  and  _105
REMARK   45  A    between atoms: _110  and  _112
REMARK   46  A    between atoms: _112  and  _113
REMARK   47  A    between atoms: _112  and  _115
REMARK   48  A    between atoms: _115  and  _116
REMARK   49  A    between atoms: _122  and  _124
REMARK   50  A    between atoms: _124  and  _125
REMARK   51  A    between atoms: _124  and  _127
REMARK   52  A    between atoms: _127  and  _128
REMARK   53  A    between atoms: _128  and  _129
REMARK   54  A    between atoms: _134  and  _136
REMARK   55  A    between atoms: _136  and  _137
REMARK   56  A    between atoms: _136  and  _139
REMARK   57  A    between atoms: _139  and  _140
REMARK   58  A    between atoms: _142  and  _144
REMARK   59  A    between atoms: _144  and  _145
REMARK   60  A    between atoms: _144  and  _147
REMARK   61  A    between atoms: _147  and  _148
REMARK   62  A    between atoms: _151  and  _153
REMARK   63  A    between atoms: _153  and  _154
REMARK   64  A    between atoms: _156  and  _158
REMARK   65  A    between atoms: _158  and  _159
REMARK   66  A    between atoms: _158  and  _161
REMARK   67  A    between atoms: _161  and  _162
REMARK   68  A    between atoms: _165  and  _167
REMARK   69  A    between atoms: _167  and  _168
REMARK   70  A    between atoms: _167  and  _170
REMARK   71  A    between atoms: _170  and  _171
REMARK   72  A    between atoms: _171  and  _172
REMARK   73  A    between atoms: _174  and  _176
REMARK   74  A    between atoms: _176  and  _177
REMARK   75  A    between atoms: _176  and  _179
REMARK   76  A    between atoms: _179  and  _180
REMARK   77  A    between atoms: _183  and  _185
REMARK   78  A    between atoms: _185  and  _186
REMARK   79  A    between atoms: _185  and  _188
REMARK   80  A    between atoms: _188  and  _189
REMARK   81  A    between atoms: _189  and  _190
REMARK   82  A    between atoms: _190  and  _191
REMARK   83  A    between atoms: _200  and  _202
REMARK   84  A    between atoms: _202  and  _203
REMARK   85  A    between atoms: _206  and  _208
REMARK   86  A    between atoms: _208  and  _209
REMARK   87  A    between atoms: _208  and  _211
REMARK   88  A    between atoms: _211  and  _212
REMARK   89  A    between atoms: _212  and  _213
REMARK   90  A    between atoms: _213  and  _214
REMARK   91  A    between atoms: _214  and  _215
REMARK   92  A    between atoms: _219  and  _221
REMARK   93  A    between atoms: _221  and  _222
REMARK   94  A    between atoms: _221  and  _224
REMARK   95  A    between atoms: _224  and  _225
REMARK   96  A    between atoms: _228  and  _230
REMARK   97  A    between atoms: _230  and  _231
REMARK   98  A    between atoms: _230  and  _233
REMARK   99  A    between atoms: _233  and  _234
REMARK  100  A    between atoms: _237  and  _239
REMARK  101  A    between atoms: _239  and  _240
REMARK  102  A    between atoms: _239  and  _242
REMARK  103  A    between atoms: _242  and  _243
REMARK  104  A    between atoms: _243  and  _244
REMARK  105  A    between atoms: _246  and  _248
REMARK  106  A    between atoms: _248  and  _249
REMARK  107  A    between atoms: _248  and  _251
REMARK  108  A    between atoms: _251  and  _252
REMARK  109  A    between atoms: _255  and  _257
REMARK  110  A    between atoms: _257  and  _258
REMARK  111  A    between atoms: _261  and  _263
REMARK  112  A    between atoms: _263  and  _264
REMARK  113  A    between atoms: _266  and  _268
REMARK  114  A    between atoms: _268  and  _269
REMARK  115  A    between atoms: _268  and  _271
REMARK  116  A    between atoms: _271  and  _272
REMARK  117  A    between atoms: _272  and  _273
REMARK  118  A    between atoms: _273  and  _274
REMARK  119  A    between atoms: _274  and  _275
REMARK  120  A    between atoms: _279  and  _281
REMARK  121  A    between atoms: _281  and  _282
REMARK  122  A    between atoms: _281  and  _284
REMARK  123  A    between atoms: _284  and  _285
REMARK  124  A    between atoms: _288  and  _290
REMARK  125  A    between atoms: _290  and  _291
REMARK  126  A    between atoms: _290  and  _293
REMARK  127  A    between atoms: _296  and  _298
REMARK  128  A    between atoms: _298  and  _299
REMARK  129  A    between atoms: _298  and  _301
REMARK  130  A    between atoms: _301  and  _302
REMARK  131  A    between atoms: _305  and  _307
REMARK  132  A    between atoms: _307  and  _308
REMARK  133  A    between atoms: _307  and  _310
REMARK  134  A    between atoms: _310  and  _311
REMARK  135  A    between atoms: _314  and  _316
REMARK  136  A    between atoms: _316  and  _317
REMARK  137  A    between atoms: _316  and  _319
REMARK  138  A    between atoms: _319  and  _320
REMARK  139  A    between atoms: _320  and  _321
REMARK  140  A    between atoms: _324  and  _326
REMARK  141  A    between atoms: _326  and  _327
REMARK  142  A    between atoms: _326  and  _329
REMARK  143  A    between atoms: _329  and  _330
REMARK  144  A    between atoms: _333  and  _335
REMARK  145  A    between atoms: _335  and  _336
REMARK  146  A    between atoms: _335  and  _338
REMARK  147  A    between atoms: _341  and  _343
REMARK  148  A    between atoms: _343  and  _344
REMARK  149  A    between atoms: _343  and  _346
REMARK  150  A    between atoms: _346  and  _347
REMARK  151  A    between atoms: _350  and  _352
REMARK  152  A    between atoms: _352  and  _353
REMARK  153  A    between atoms: _352  and  _355
REMARK  154  A    between atoms: _358  and  _360
REMARK  155  A    between atoms: _360  and  _361
REMARK  156  A    between atoms: _360  and  _363
REMARK  157  A    between atoms: _363  and  _364
REMARK  158  A    between atoms: _367  and  _369
REMARK  159  A    between atoms: _369  and  _370
REMARK  160  A    between atoms: _372  and  _374
REMARK  161  A    between atoms: _374  and  _375
REMARK  162  A    between atoms: _374  and  _377
REMARK  163  A    between atoms: _377  and  _378
REMARK  164  A    between atoms: _385  and  _386
REMARK  165  A    between atoms: _391  and  _393
REMARK  166  A    between atoms: _393  and  _394
REMARK  167  A    between atoms: _393  and  _396
REMARK  168  A    between atoms: _396  and  _397
REMARK  169  A    between atoms: _397  and  _398
REMARK  170  A    between atoms: _398  and  _399
REMARK  171  A    between atoms: _408  and  _410
REMARK  172  A    between atoms: _410  and  _411
REMARK  173  A    between atoms: _410  and  _413
REMARK  174  A    between atoms: _413  and  _414
REMARK  175  A    between atoms: _417  and  _419
REMARK  176  A    between atoms: _419  and  _420
REMARK  177  A    between atoms: _419  and  _422
REMARK  178  A    between atoms: _422  and  _423
REMARK  179  A    between atoms: _423  and  _424
REMARK  180  A    between atoms: _429  and  _431
REMARK  181  A    between atoms: _431  and  _432
REMARK  182  A    between atoms: _431  and  _434
REMARK  183  A    between atoms: _434  and  _435
REMARK  184  A    between atoms: _441  and  _443
REMARK  185  A    between atoms: _443  and  _444
REMARK  186  A    between atoms: _443  and  _446
REMARK  187  A    between atoms: _449  and  _451
REMARK  188  A    between atoms: _451  and  _452
REMARK  189  A    between atoms: _451  and  _454
REMARK  190  A    between atoms: _454  and  _455
REMARK  191  A    between atoms: _458  and  _460
REMARK  192  A    between atoms: _460  and  _461
REMARK  193  A    between atoms: _460  and  _463
REMARK  194  A    between atoms: _463  and  _464
REMARK  195  A    between atoms: _467  and  _469
REMARK  196  A    between atoms: _469  and  _470
REMARK  197  A    between atoms: _469  and  _472
REMARK  198  A    between atoms: _475  and  _477
REMARK  199  A    between atoms: _477  and  _478
REMARK  200  A    between atoms: _477  and  _480
REMARK  201  A    between atoms: _480  and  _481
REMARK  202  A    between atoms: _484  and  _486
REMARK  203  A    between atoms: _486  and  _487
REMARK  204  A    between atoms: _486  and  _489
REMARK  205  A    between atoms: _489  and  _490
REMARK  206  A    between atoms: _490  and  _491
REMARK  207  A    between atoms: _491  and  _492
REMARK  208  A    between atoms: _501  and  _503
REMARK  209  A    between atoms: _503  and  _504
REMARK  210  A    between atoms: _503  and  _506
REMARK  211  A    between atoms: _506  and  _507
REMARK  212  A    between atoms: _510  and  _512
REMARK  213  A    between atoms: _512  and  _513
REMARK  214  A    between atoms: _512  and  _515
REMARK  215  A    between atoms: _518  and  _520
REMARK  216  A    between atoms: _520  and  _521
REMARK  217  A    between atoms: _523  and  _525
REMARK  218  A    between atoms: _525  and  _526
REMARK  219  A    between atoms: _525  and  _528
REMARK  220  A    between atoms: _528  and  _529
REMARK  221  A    between atoms: _529  and  _530
REMARK  222  A    between atoms: _530  and  _531
REMARK  223  A    between atoms: _540  and  _542
REMARK  224  A    between atoms: _542  and  _543
REMARK  225  A    between atoms: _542  and  _545
REMARK  226  A    between atoms: _545  and  _546
REMARK  227  A    between atoms: _546  and  _547
REMARK  228  A    between atoms: _547  and  _548
REMARK  229  A    between atoms: _557  and  _559
REMARK  230  A    between atoms: _559  and  _560
REMARK  231  A    between atoms: _559  and  _562
REMARK  232  A    between atoms: _565  and  _567
REMARK  233  A    between atoms: _567  and  _568
REMARK  234  A    between atoms: _570  and  _572
REMARK  235  A    between atoms: _572  and  _573
REMARK  236  A    between atoms: _572  and  _575
REMARK  237  A    between atoms: _575  and  _576
REMARK  238  A    between atoms: _576  and  _577
REMARK  239  A    between atoms: _577  and  _578
REMARK  240  A    between atoms: _587  and  _589
REMARK  241  A    between atoms: _589  and  _590
REMARK  242  A    between atoms: _589  and  _592
REMARK  243  A    between atoms: _595  and  _597
REMARK  244  A    between atoms: _597  and  _598
REMARK  245  A    between atoms: _597  and  _600
REMARK  246  A    between atoms: _600  and  _601
REMARK  247  A    between atoms: _606  and  _607
REMARK  248  A    between atoms: _609  and  _611
REMARK  249  A    between atoms: _611  and  _612
REMARK  250  A    between atoms: _611  and  _614
REMARK  251  A    between atoms: _614  and  _615
REMARK  252  A    between atoms: _620  and  _622
REMARK  253  A    between atoms: _622  and  _623
REMARK  254  A    between atoms: _622  and  _625
REMARK  255  A    between atoms: _628  and  _630
REMARK  256  A    between atoms: _630  and  _631
REMARK  257  A    between atoms: _630  and  _633
REMARK  258  A    between atoms: _633  and  _634
REMARK  259  A    between atoms: _634  and  _635
REMARK  260  A    between atoms: _635  and  _636
REMARK  261  A    between atoms: _636  and  _637
REMARK  262  A    between atoms: _641  and  _643
REMARK  263  A    between atoms: _643  and  _644
REMARK  264  A    between atoms: _643  and  _646
REMARK  265  A    between atoms: _646  and  _647
REMARK  266  A    between atoms: _653  and  _655
REMARK  267  A    between atoms: _655  and  _656
REMARK  268  A    between atoms: _655  and  _658
REMARK  269  A    between atoms: _658  and  _659
REMARK  270  A    between atoms: _665  and  _666
REMARK  271  A    between atoms: _671  and  _673
REMARK  272  A    between atoms: _673  and  _674
REMARK  273  A    between atoms: _673  and  _676
REMARK  274  A    between atoms: _676  and  _677
REMARK  275  A    between atoms: _677  and  _678
REMARK  276  A    between atoms: _678  and  _679
REMARK  277  A    between atoms: _688  and  _690
REMARK  278  A    between atoms: _690  and  _691
REMARK  279  A    between atoms: _690  and  _693
REMARK  280  A    between atoms: _693  and  _694
REMARK  281  A    between atoms: _697  and  _699
REMARK  282  A    between atoms: _699  and  _700
REMARK  283  A    between atoms: _699  and  _702
REMARK  284  A    between atoms: _702  and  _703
REMARK  285  A    between atoms: _706  and  _708
REMARK  286  A    between atoms: _708  and  _709
REMARK  287  A    between atoms: _708  and  _711
REMARK  288  A    between atoms: _711  and  _712
REMARK  289  A    between atoms: _715  and  _717
REMARK  290  A    between atoms: _717  and  _718
REMARK  291  A    between atoms: _717  and  _720
REMARK  292  A    between atoms: _723  and  _725
REMARK  293  A    between atoms: _725  and  _726
REMARK  294  A    between atoms: _725  and  _728
REMARK  295  A    between atoms: _728  and  _729
REMARK  296  A    between atoms: _729  and  _730
REMARK  297  A    between atoms: _730  and  _731
REMARK  298  A    between atoms: _731  and  _732
REMARK  299  A    between atoms: _736  and  _738
REMARK  300  A    between atoms: _738  and  _739
REMARK  301  A    between atoms: _738  and  _741
REMARK  302  A    between atoms: _741  and  _742
REMARK  303  A    between atoms: _742  and  _743
REMARK  304  A    between atoms: _743  and  _744
REMARK  305  A    between atoms: _753  and  _755
REMARK  306  A    between atoms: _755  and  _756
REMARK  307  A    between atoms: _755  and  _758
REMARK  308  A    between atoms: _758  and  _759
REMARK  309  A    between atoms: _762  and  _764
REMARK  310  A    between atoms: _764  and  _765
REMARK  311  A    between atoms: _764  and  _767
REMARK  312  A    between atoms: _767  and  _768
REMARK  313  A    between atoms: _768  and  _769
REMARK  314  A    between atoms: _772  and  _774
REMARK  315  A    between atoms: _774  and  _775
REMARK  316  A    between atoms: _774  and  _777
REMARK  317  A    between atoms: _777  and  _778
REMARK  318  A    between atoms: _788  and  _790
REMARK  319  A    between atoms: _790  and  _791
REMARK  320  A    between atoms: _790  and  _793
REMARK  321  A    between atoms: _793  and  _794
REMARK  322  A    between atoms: _797  and  _799
REMARK  323  A    between atoms: _799  and  _800
REMARK  324  A    between atoms: _799  and  _802
REMARK  325  A    between atoms: _802  and  _803
REMARK  326  A    between atoms: _806  and  _808
REMARK  327  A    between atoms: _808  and  _809
REMARK  328  A    between atoms: _811  and  _813
REMARK  329  A    between atoms: _813  and  _814
REMARK  330  A    between atoms: _813  and  _816
REMARK  331  A    between atoms: _816  and  _817
REMARK  332  A    between atoms: _820  and  _822
REMARK  333  A    between atoms: _822  and  _823
REMARK  334  A    between atoms: _822  and  _825
REMARK  335  A    between atoms: _825  and  _826
REMARK  336  A    between atoms: _826  and  _827
REMARK  337  A    between atoms: _827  and  _828
REMARK  338  A    between atoms: _828  and  _829
REMARK  339  A    between atoms: _834  and  _835
REMARK  340  A    between atoms: _840  and  _842
REMARK  341  A    between atoms: _842  and  _843
REMARK  342  A    between atoms: _842  and  _845
REMARK  343  A    between atoms: _848  and  _850
REMARK  344  A    between atoms: _850  and  _851
REMARK  345  A    between atoms: _854  and  _856
REMARK  346  A    between atoms: _856  and  _857
REMARK  347  A    between atoms: _856  and  _859
REMARK  348  A    between atoms: _859  and  _860
REMARK  349  A    between atoms: _860  and  _861
REMARK  350  A    between atoms: _864  and  _866
REMARK  351  A    between atoms: _866  and  _867
REMARK  352  A    between atoms: _866  and  _869
REMARK  353  A    between atoms: _872  and  _874
REMARK  354  A    between atoms: _874  and  _875
REMARK  355  A    between atoms: _874  and  _877
REMARK  356  A    between atoms: _877  and  _878
REMARK  357  A    between atoms: _878  and  _879
REMARK  358  A    between atoms: _879  and  _880
REMARK                            x       y       z     vdW  Elec       q    Type
REMARK                         _______ _______ _______ _____ _____    ______ ____
ROOT
ATOM      1  O   HOH     1     -13.670  11.893 -27.037  0.00  0.00    +0.000 OA
ENDROOT
TORSDOF 0
REMARK  Name = ../refined-set-2016/4x8o/4x8o_pocket.pdb
REMARK  358 active torsions:
REMARK  status: ('A' for Active; 'I' for Inactive)
REMARK    1  A    between atoms: _1  and  _3
REMARK    2  A    between atoms: _3  and  _4
REMARK    3  A    between atoms: _3  and  _6
REMARK    4  A    between atoms: _6  and  _7
REMARK    5  A    between atoms: _10  and  _12
REMARK    6  A    between atoms: _12  and  _13
REMARK    7  A    between atoms: _12  and  _15
REMARK    8  A    between atoms: _15  and  _16
REMARK    9  A    between atoms: _19  and  _21
REMARK   10  A    between atoms: _21  and  _22
REMARK   11  A    between atoms: _24  and  _26
REMARK   12  A    between atoms: _26  and  _27
REMARK   13  A    between atoms: _31  and  _32
REMARK   14  A    between atoms: _37  and  _39
REMARK   15  A    between atoms: _39  and  _40
REMARK   16  A    between atoms: _42  and  _44
REMARK   17  A    between atoms: _44  and  _45
REMARK   18  A    between atoms: _48  and  _50
REMARK   19  A    between atoms: _50  and  _51
REMARK   20  A    between atoms: _53  and  _55
REMARK   21  A    between atoms: _55  and  _56
REMARK   22  A    between atoms: _55  and  _58
REMARK   23  A    between atoms: _58  and  _59
REMARK   24  A    between atoms: _59  and  _60
REMARK   25  A    between atoms: _60  and  _61
REMARK   26  A    between atoms: _61  and  _62
REMARK   27  A    between atoms: _66  and  _68
REMARK   28  A    between atoms: _68  and  _69
REMARK   29  A    between atoms: _71  and  _73
REMARK   30  A    between atoms: _73  and  _74
REMARK   31  A    between atoms: _73  and  _76
REMARK   32  A    between atoms: _76  and  _77
REMARK   33  A    between atoms: _80  and  _82
REMARK   34  A    between atoms: _82  and  _83
REMARK   35  A    between atoms: _82  and  _85
REMARK   36  A    between atoms: _85  and  _86
REMARK   37  A    between atoms: _86  and  _87
REMARK   38  A    between atoms: _92  and  _94
REMARK   39  A    between atoms: _94  and  _95
REMARK   40  A    between atoms: _98  and  _100
REMARK   41  A    between atoms: _100  and  _101
REMARK   42  A    between atoms: _100  and  _103
REMARK   43  A    between atoms: _103  and  _104
REMARK   44  A    between atoms: _104  and  _105
REMARK   45  A    between atoms: _110  and  _112
REMARK   46  A    between atoms: _112  and  _113
REMARK   47  A    between atoms: _112  and  _115
REMARK   48  A    between atoms: _115  and  _116
REMARK   49  A    between atoms: _122  and  _124
REMARK   50  A    between atoms: _124  and  _125
REMARK   51  A    between atoms: _124  and  _127
REMARK   52  A    between atoms: _127  and  _128
REMARK   53  A    between atoms: _128  and  _129
REMARK   54  A    between atoms: _134  and  _136
REMARK   55  A    between atoms: _136  and  _137
REMARK   56  A    between atoms: _136  and  _139
REMARK   57  A    between atoms: _139  and  _140
REMARK   58  A    between atoms: _142  and  _144
REMARK   59  A    between atoms: _144  and  _145
REMARK   60  A    between atoms: _144  and  _147
REMARK   61  A    between atoms: _147  and  _148
REMARK   62  A    between atoms: _151  and  _153
REMARK   63  A    between atoms: _153  and  _154
REMARK   64  A    between atoms: _156  and  _158
REMARK   65  A    between atoms: _158  and  _159
REMARK   66  A    between atoms: _158  and  _161
REMARK   67  A    between atoms: _161  and  _162
REMARK   68  A    between atoms: _165  and  _167
REMARK   69  A    between atoms: _167  and  _168
REMARK   70  A    between atoms: _167  and  _170
REMARK   71  A    between atoms: _170  and  _171
REMARK   72  A    between atoms: _171  and  _172
REMARK   73  A    between atoms: _174  and  _176
REMARK   74  A    between atoms: _176  and  _177
REMARK   75  A    between atoms: _176  and  _179
REMARK   76  A    between atoms: _179  and  _180
REMARK   77  A    between atoms: _183  and  _185
REMARK   78  A    between atoms: _185  and  _186
REMARK   79  A    between atoms: _185  and  _188
REMARK   80  A    between atoms: _188  and  _189
REMARK   81  A    between atoms: _189  and  _190
REMARK   82  A    between atoms: _190  and  _191
REMARK   83  A    between atoms: _200  and  _202
REMARK   84  A    between atoms: _202  and  _203
REMARK   85  A    between atoms: _206  and  _208
REMARK   86  A    between atoms: _208  and  _209
REMARK   87  A    between atoms: _208  and  _211
REMARK   88  A    between atoms: _211  and  _212
REMARK   89  A    between atoms: _212  and  _213
REMARK   90  A    between atoms: _213  and  _214
REMARK   91  A    between atoms: _214  and  _215
REMARK   92  A    between atoms: _219  and  _221
REMARK   93  A    between atoms: _221  and  _222
REMARK   94  A    between atoms: _221  and  _224
REMARK   95  A    between atoms: _224  and  _225
REMARK   96  A    between atoms: _228  and  _230
REMARK   97  A    between atoms: _230  and  _231
REMARK   98  A    between atoms: _230  and  _233
REMARK   99  A    between atoms: _233  and  _234
REMARK  100  A    between atoms: _237  and  _239
REMARK  101  A    between atoms: _239  and  _240
REMARK  102  A    between atoms: _239  and  _242
REMARK  103  A    between atoms: _242  and  _243
REMARK  104  A    between atoms: _243  and  _244
REMARK  105  A    between atoms: _246  and  _248
REMARK  106  A    between atoms: _248  and  _249
REMARK  107  A    between atoms: _248  and  _251
REMARK  108  A    between atoms: _251  and  _252
REMARK  109  A    between atoms: _255  and  _257
REMARK  110  A    between atoms: _257  and  _258
REMARK  111  A    between atoms: _261  and  _263
REMARK  112  A    between atoms: _263  and  _264
REMARK  113  A    between atoms: _266  and  _268
REMARK  114  A    between atoms: _268  and  _269
REMARK  115  A    between atoms: _268  and  _271
REMARK  116  A    between atoms: _271  and  _272
REMARK  117  A    between atoms: _272  and  _273
REMARK  118  A    between atoms: _273  and  _274
REMARK  119  A    between atoms: _274  and  _275
REMARK  120  A    between atoms: _279  and  _281
REMARK  121  A    between atoms: _281  and  _282
REMARK  122  A    between atoms: _281  and  _284
REMARK  123  A    between atoms: _284  and  _285
REMARK  124  A    between atoms: _288  and  _290
REMARK  125  A    between atoms: _290  and  _291
REMARK  126  A    between atoms: _290  and  _293
REMARK  127  A    between atoms: _296  and  _298
REMARK  128  A    between atoms: _298  and  _299
REMARK  129  A    between atoms: _298  and  _301
REMARK  130  A    between atoms: _301  and  _302
REMARK  131  A    between atoms: _305  and  _307
REMARK  132  A    between atoms: _307  and  _308
REMARK  133  A    between atoms: _307  and  _310
REMARK  134  A    between atoms: _310  and  _311
REMARK  135  A    between atoms: _314  and  _316
REMARK  136  A    between atoms: _316  and  _317
REMARK  137  A    between atoms: _316  and  _319
REMARK  138  A    between atoms: _319  and  _320
REMARK  139  A    between atoms: _320  and  _321
REMARK  140  A    between atoms: _324  and  _326
REMARK  141  A    between atoms: _326  and  _327
REMARK  142  A    between atoms: _326  and  _329
REMARK  143  A    between atoms: _329  and  _330
REMARK  144  A    between atoms: _333  and  _335
REMARK  145  A    between atoms: _335  and  _336
REMARK  146  A    between atoms: _335  and  _338
REMARK  147  A    between atoms: _341  and  _343
REMARK  148  A    between atoms: _343  and  _344
REMARK  149  A    between atoms: _343  and  _346
REMARK  150  A    between atoms: _346  and  _347
REMARK  151  A    between atoms: _350  and  _352
REMARK  152  A    between atoms: _352  and  _353
REMARK  153  A    between atoms: _352  and  _355
REMARK  154  A    between atoms: _358  and  _360
REMARK  155  A    between atoms: _360  and  _361
REMARK  156  A    between atoms: _360  and  _363
REMARK  157  A    between atoms: _363  and  _364
REMARK  158  A    between atoms: _367  and  _369
REMARK  159  A    between atoms: _369  and  _370
REMARK  160  A    between atoms: _372  and  _374
REMARK  161  A    between atoms: _374  and  _375
REMARK  162  A    between atoms: _374  and  _377
REMARK  163  A    between atoms: _377  and  _378
REMARK  164  A    between atoms: _385  and  _386
REMARK  165  A    between atoms: _391  and  _393
REMARK  166  A    between atoms: _393  and  _394
REMARK  167  A    between atoms: _393  and  _396
REMARK  168  A    between atoms: _396  and  _397
REMARK  169  A    between atoms: _397  and  _398
REMARK  170  A    between atoms: _398  and  _399
REMARK  171  A    between atoms: _408  and  _410
REMARK  172  A    between atoms: _410  and  _411
REMARK  173  A    between atoms: _410  and  _413
REMARK  174  A    between atoms: _413  and  _414
REMARK  175  A    between atoms: _417  and  _419
REMARK  176  A    between atoms: _419  and  _420
REMARK  177  A    between atoms: _419  and  _422
REMARK  178  A    between atoms: _422  and  _423
REMARK  179  A    between atoms: _423  and  _424
REMARK  180  A    between atoms: _429  and  _431
REMARK  181  A    between atoms: _431  and  _432
REMARK  182  A    between atoms: _431  and  _434
REMARK  183  A    between atoms: _434  and  _435
REMARK  184  A    between atoms: _441  and  _443
REMARK  185  A    between atoms: _443  and  _444
REMARK  186  A    between atoms: _443  and  _446
REMARK  187  A    between atoms: _449  and  _451
REMARK  188  A    between atoms: _451  and  _452
REMARK  189  A    between atoms: _451  and  _454
REMARK  190  A    between atoms: _454  and  _455
REMARK  191  A    between atoms: _458  and  _460
REMARK  192  A    between atoms: _460  and  _461
REMARK  193  A    between atoms: _460  and  _463
REMARK  194  A    between atoms: _463  and  _464
REMARK  195  A    between atoms: _467  and  _469
REMARK  196  A    between atoms: _469  and  _470
REMARK  197  A    between atoms: _469  and  _472
REMARK  198  A    between atoms: _475  and  _477
REMARK  199  A    between atoms: _477  and  _478
REMARK  200  A    between atoms: _477  and  _480
REMARK  201  A    between atoms: _480  and  _481
REMARK  202  A    between atoms: _484  and  _486
REMARK  203  A    between atoms: _486  and  _487
REMARK  204  A    between atoms: _486  and  _489
REMARK  205  A    between atoms: _489  and  _490
REMARK  206  A    between atoms: _490  and  _491
REMARK  207  A    between atoms: _491  and  _492
REMARK  208  A    between atoms: _501  and  _503
REMARK  209  A    between atoms: _503  and  _504
REMARK  210  A    between atoms: _503  and  _506
REMARK  211  A    between atoms: _506  and  _507
REMARK  212  A    between atoms: _510  and  _512
REMARK  213  A    between atoms: _512  and  _513
REMARK  214  A    between atoms: _512  and  _515
REMARK  215  A    between atoms: _518  and  _520
REMARK  216  A    between atoms: _520  and  _521
REMARK  217  A    between atoms: _523  and  _525
REMARK  218  A    between atoms: _525  and  _526
REMARK  219  A    between atoms: _525  and  _528
REMARK  220  A    between atoms: _528  and  _529
REMARK  221  A    between atoms: _529  and  _530
REMARK  222  A    between atoms: _530  and  _531
REMARK  223  A    between atoms: _540  and  _542
REMARK  224  A    between atoms: _542  and  _543
REMARK  225  A    between atoms: _542  and  _545
REMARK  226  A    between atoms: _545  and  _546
REMARK  227  A    between atoms: _546  and  _547
REMARK  228  A    between atoms: _547  and  _548
REMARK  229  A    between atoms: _557  and  _559
REMARK  230  A    between atoms: _559  and  _560
REMARK  231  A    between atoms: _559  and  _562
REMARK  232  A    between atoms: _565  and  _567
REMARK  233  A    between atoms: _567  and  _568
REMARK  234  A    between atoms: _570  and  _572
REMARK  235  A    between atoms: _572  and  _573
REMARK  236  A    between atoms: _572  and  _575
REMARK  237  A    between atoms: _575  and  _576
REMARK  238  A    between atoms: _576  and  _577
REMARK  239  A    between atoms: _577  and  _578
REMARK  240  A    between atoms: _587  and  _589
REMARK  241  A    between atoms: _589  and  _590
REMARK  242  A    between atoms: _589  and  _592
REMARK  243  A    between atoms: _595  and  _597
REMARK  244  A    between atoms: _597  and  _598
REMARK  245  A    between atoms: _597  and  _600
REMARK  246  A    between atoms: _600  and  _601
REMARK  247  A    between atoms: _606  and  _607
REMARK  248  A    between atoms: _609  and  _611
REMARK  249  A    between atoms: _611  and  _612
REMARK  250  A    between atoms: _611  and  _614
REMARK  251  A    between atoms: _614  and  _615
REMARK  252  A    between atoms: _620  and  _622
REMARK  253  A    between atoms: _622  and  _623
REMARK  254  A    between atoms: _622  and  _625
REMARK  255  A    between atoms: _628  and  _630
REMARK  256  A    between atoms: _630  and  _631
REMARK  257  A    between atoms: _630  and  _633
REMARK  258  A    between atoms: _633  and  _634
REMARK  259  A    between atoms: _634  and  _635
REMARK  260  A    between atoms: _635  and  _636
REMARK  261  A    between atoms: _636  and  _637
REMARK  262  A    between atoms: _641  and  _643
REMARK  263  A    between atoms: _643  and  _644
REMARK  264  A    between atoms: _643  and  _646
REMARK  265  A    between atoms: _646  and  _647
REMARK  266  A    between atoms: _653  and  _655
REMARK  267  A    between atoms: _655  and  _656
REMARK  268  A    between atoms: _655  and  _658
REMARK  269  A    between atoms: _658  and  _659
REMARK  270  A    between atoms: _665  and  _666
REMARK  271  A    between atoms: _671  and  _673
REMARK  272  A    between atoms: _673  and  _674
REMARK  273  A    between atoms: _673  and  _676
REMARK  274  A    between atoms: _676  and  _677
REMARK  275  A    between atoms: _677  and  _678
REMARK  276  A    between atoms: _678  and  _679
REMARK  277  A    between atoms: _688  and  _690
REMARK  278  A    between atoms: _690  and  _691
REMARK  279  A    between atoms: _690  and  _693
REMARK  280  A    between atoms: _693  and  _694
REMARK  281  A    between atoms: _697  and  _699
REMARK  282  A    between atoms: _699  and  _700
REMARK  283  A    between atoms: _699  and  _702
REMARK  284  A    between atoms: _702  and  _703
REMARK  285  A    between atoms: _706  and  _708
REMARK  286  A    between atoms: _708  and  _709
REMARK  287  A    between atoms: _708  and  _711
REMARK  288  A    between atoms: _711  and  _712
REMARK  289  A    between atoms: _715  and  _717
REMARK  290  A    between atoms: _717  and  _718
REMARK  291  A    between atoms: _717  and  _720
REMARK  292  A    between atoms: _723  and  _725
REMARK  293  A    between atoms: _725  and  _726
REMARK  294  A    between atoms: _725  and  _728
REMARK  295  A    between atoms: _728  and  _729
REMARK  296  A    between atoms: _729  and  _730
REMARK  297  A    between atoms: _730  and  _731
REMARK  298  A    between atoms: _731  and  _732
REMARK  299  A    between atoms: _736  and  _738
REMARK  300  A    between atoms: _738  and  _739
REMARK  301  A    between atoms: _738  and  _741
REMARK  302  A    between atoms: _741  and  _742
REMARK  303  A    between atoms: _742  and  _743
REMARK  304  A    between atoms: _743  and  _744
REMARK  305  A    between atoms: _753  and  _755
REMARK  306  A    between atoms: _755  and  _756
REMARK  307  A    between atoms: _755  and  _758
REMARK  308  A    between atoms: _758  and  _759
REMARK  309  A    between atoms: _762  and  _764
REMARK  310  A    between atoms: _764  and  _765
REMARK  311  A    between atoms: _764  and  _767
REMARK  312  A    between atoms: _767  and  _768
REMARK  313  A    between atoms: _768  and  _769
REMARK  314  A    between atoms: _772  and  _774
REMARK  315  A    between atoms: _774  and  _775
REMARK  316  A    between atoms: _774  and  _777
REMARK  317  A    between atoms: _777  and  _778
REMARK  318  A    between atoms: _788  and  _790
REMARK  319  A    between atoms: _790  and  _791
REMARK  320  A    between atoms: _790  and  _793
REMARK  321  A    between atoms: _793  and  _794
REMARK  322  A    between atoms: _797  and  _799
REMARK  323  A    between atoms: _799  and  _800
REMARK  324  A    between atoms: _799  and  _802
REMARK  325  A    between atoms: _802  and  _803
REMARK  326  A    between atoms: _806  and  _808
REMARK  327  A    between atoms: _808  and  _809
REMARK  328  A    between atoms: _811  and  _813
REMARK  329  A    between atoms: _813  and  _814
REMARK  330  A    between atoms: _813  and  _816
REMARK  331  A    between atoms: _816  and  _817
REMARK  332  A    between atoms: _820  and  _822
REMARK  333  A    between atoms: _822  and  _823
REMARK  334  A    between atoms: _822  and  _825
REMARK  335  A    between atoms: _825  and  _826
REMARK  336  A    between atoms: _826  and  _827
REMARK  337  A    between atoms: _827  and  _828
REMARK  338  A    between atoms: _828  and  _829
REMARK  339  A    between atoms: _834  and  _835
REMARK  340  A    between atoms: _840  and  _842
REMARK  341  A    between atoms: _842  and  _843
REMARK  342  A    between atoms: _842  and  _845
REMARK  343  A    between atoms: _848  and  _850
REMARK  344  A    between atoms: _850  and  _851
REMARK  345  A    between atoms: _854  and  _856
REMARK  346  A    between atoms: _856  and  _857
REMARK  347  A    between atoms: _856  and  _859
REMARK  348  A    between atoms: _859  and  _860
REMARK  349  A    between atoms: _860  and  _861
REMARK  350  A    between atoms: _864  and  _866
REMARK  351  A    between atoms: _866  and  _867
REMARK  352  A    between atoms: _866  and  _869
REMARK  353  A    between atoms: _872  and  _874
REMARK  354  A    between atoms: _874  and  _875
REMARK  355  A    between atoms: _874  and  _877
REMARK  356  A    between atoms: _877  and  _878
REMARK  357  A    between atoms: _878  and  _879
REMARK  358  A    between atoms: _879  and  _880
REMARK                            x       y       z     vdW  Elec       q    Type
REMARK                         _______ _______ _______ _____ _____    ______ ____
ROOT
ATOM      1  O   HOH     1     -24.922  23.437 -42.276  0.00  0.00    +0.000 OA
ENDROOT
TORSDOF 0
REMARK  Name = ../refined-set-2016/4x8o/4x8o_pocket.pdb
REMARK  358 active torsions:
REMARK  status: ('A' for Active; 'I' for Inactive)
REMARK    1  A    between atoms: _1  and  _3
REMARK    2  A    between atoms: _3  and  _4
REMARK    3  A    between atoms: _3  and  _6
REMARK    4  A    between atoms: _6  and  _7
REMARK    5  A    between atoms: _10  and  _12
REMARK    6  A    between atoms: _12  and  _13
REMARK    7  A    between atoms: _12  and  _15
REMARK    8  A    between atoms: _15  and  _16
REMARK    9  A    between atoms: _19  and  _21
REMARK   10  A    between atoms: _21  and  _22
REMARK   11  A    between atoms: _24  and  _26
REMARK   12  A    between atoms: _26  and  _27
REMARK   13  A    between atoms: _31  and  _32
REMARK   14  A    between atoms: _37  and  _39
REMARK   15  A    between atoms: _39  and  _40
REMARK   16  A    between atoms: _42  and  _44
REMARK   17  A    between atoms: _44  and  _45
REMARK   18  A    between atoms: _48  and  _50
REMARK   19  A    between atoms: _50  and  _51
REMARK   20  A    between atoms: _53  and  _55
REMARK   21  A    between atoms: _55  and  _56
REMARK   22  A    between atoms: _55  and  _58
REMARK   23  A    between atoms: _58  and  _59
REMARK   24  A    between atoms: _59  and  _60
REMARK   25  A    between atoms: _60  and  _61
REMARK   26  A    between atoms: _61  and  _62
REMARK   27  A    between atoms: _66  and  _68
REMARK   28  A    between atoms: _68  and  _69
REMARK   29  A    between atoms: _71  and  _73
REMARK   30  A    between atoms: _73  and  _74
REMARK   31  A    between atoms: _73  and  _76
REMARK   32  A    between atoms: _76  and  _77
REMARK   33  A    between atoms: _80  and  _82
REMARK   34  A    between atoms: _82  and  _83
REMARK   35  A    between atoms: _82  and  _85
REMARK   36  A    between atoms: _85  and  _86
REMARK   37  A    between atoms: _86  and  _87
REMARK   38  A    between atoms: _92  and  _94
REMARK   39  A    between atoms: _94  and  _95
REMARK   40  A    between atoms: _98  and  _100
REMARK   41  A    between atoms: _100  and  _101
REMARK   42  A    between atoms: _100  and  _103
REMARK   43  A    between atoms: _103  and  _104
REMARK   44  A    between atoms: _104  and  _105
REMARK   45  A    between atoms: _110  and  _112
REMARK   46  A    between atoms: _112  and  _113
REMARK   47  A    between atoms: _112  and  _115
REMARK   48  A    between atoms: _115  and  _116
REMARK   49  A    between atoms: _122  and  _124
REMARK   50  A    between atoms: _124  and  _125
REMARK   51  A    between atoms: _124  and  _127
REMARK   52  A    between atoms: _127  and  _128
REMARK   53  A    between atoms: _128  and  _129
REMARK   54  A    between atoms: _134  and  _136
REMARK   55  A    between atoms: _136  and  _137
REMARK   56  A    between atoms: _136  and  _139
REMARK   57  A    between atoms: _139  and  _140
REMARK   58  A    between atoms: _142  and  _144
REMARK   59  A    between atoms: _144  and  _145
REMARK   60  A    between atoms: _144  and  _147
REMARK   61  A    between atoms: _147  and  _148
REMARK   62  A    between atoms: _151  and  _153
REMARK   63  A    between atoms: _153  and  _154
REMARK   64  A    between atoms: _156  and  _158
REMARK   65  A    between atoms: _158  and  _159
REMARK   66  A    between atoms: _158  and  _161
REMARK   67  A    between atoms: _161  and  _162
REMARK   68  A    between atoms: _165  and  _167
REMARK   69  A    between atoms: _167  and  _168
REMARK   70  A    between atoms: _167  and  _170
REMARK   71  A    between atoms: _170  and  _171
REMARK   72  A    between atoms: _171  and  _172
REMARK   73  A    between atoms: _174  and  _176
REMARK   74  A    between atoms: _176  and  _177
REMARK   75  A    between atoms: _176  and  _179
REMARK   76  A    between atoms: _179  and  _180
REMARK   77  A    between atoms: _183  and  _185
REMARK   78  A    between atoms: _185  and  _186
REMARK   79  A    between atoms: _185  and  _188
REMARK   80  A    between atoms: _188  and  _189
REMARK   81  A    between atoms: _189  and  _190
REMARK   82  A    between atoms: _190  and  _191
REMARK   83  A    between atoms: _200  and  _202
REMARK   84  A    between atoms: _202  and  _203
REMARK   85  A    between atoms: _206  and  _208
REMARK   86  A    between atoms: _208  and  _209
REMARK   87  A    between atoms: _208  and  _211
REMARK   88  A    between atoms: _211  and  _212
REMARK   89  A    between atoms: _212  and  _213
REMARK   90  A    between atoms: _213  and  _214
REMARK   91  A    between atoms: _214  and  _215
REMARK   92  A    between atoms: _219  and  _221
REMARK   93  A    between atoms: _221  and  _222
REMARK   94  A    between atoms: _221  and  _224
REMARK   95  A    between atoms: _224  and  _225
REMARK   96  A    between atoms: _228  and  _230
REMARK   97  A    between atoms: _230  and  _231
REMARK   98  A    between atoms: _230  and  _233
REMARK   99  A    between atoms: _233  and  _234
REMARK  100  A    between atoms: _237  and  _239
REMARK  101  A    between atoms: _239  and  _240
REMARK  102  A    between atoms: _239  and  _242
REMARK  103  A    between atoms: _242  and  _243
REMARK  104  A    between atoms: _243  and  _244
REMARK  105  A    between atoms: _246  and  _248
REMARK  106  A    between atoms: _248  and  _249
REMARK  107  A    between atoms: _248  and  _251
REMARK  108  A    between atoms: _251  and  _252
REMARK  109  A    between atoms: _255  and  _257
REMARK  110  A    between atoms: _257  and  _258
REMARK  111  A    between atoms: _261  and  _263
REMARK  112  A    between atoms: _263  and  _264
REMARK  113  A    between atoms: _266  and  _268
REMARK  114  A    between atoms: _268  and  _269
REMARK  115  A    between atoms: _268  and  _271
REMARK  116  A    between atoms: _271  and  _272
REMARK  117  A    between atoms: _272  and  _273
REMARK  118  A    between atoms: _273  and  _274
REMARK  119  A    between atoms: _274  and  _275
REMARK  120  A    between atoms: _279  and  _281
REMARK  121  A    between atoms: _281  and  _282
REMARK  122  A    between atoms: _281  and  _284
REMARK  123  A    between atoms: _284  and  _285
REMARK  124  A    between atoms: _288  and  _290
REMARK  125  A    between atoms: _290  and  _291
REMARK  126  A    between atoms: _290  and  _293
REMARK  127  A    between atoms: _296  and  _298
REMARK  128  A    between atoms: _298  and  _299
REMARK  129  A    between atoms: _298  and  _301
REMARK  130  A    between atoms: _301  and  _302
REMARK  131  A    between atoms: _305  and  _307
REMARK  132  A    between atoms: _307  and  _308
REMARK  133  A    between atoms: _307  and  _310
REMARK  134  A    between atoms: _310  and  _311
REMARK  135  A    between atoms: _314  and  _316
REMARK  136  A    between atoms: _316  and  _317
REMARK  137  A    between atoms: _316  and  _319
REMARK  138  A    between atoms: _319  and  _320
REMARK  139  A    between atoms: _320  and  _321
REMARK  140  A    between atoms: _324  and  _326
REMARK  141  A    between atoms: _326  and  _327
REMARK  142  A    between atoms: _326  and  _329
REMARK  143  A    between atoms: _329  and  _330
REMARK  144  A    between atoms: _333  and  _335
REMARK  145  A    between atoms: _335  and  _336
REMARK  146  A    between atoms: _335  and  _338
REMARK  147  A    between atoms: _341  and  _343
REMARK  148  A    between atoms: _343  and  _344
REMARK  149  A    between atoms: _343  and  _346
REMARK  150  A    between atoms: _346  and  _347
REMARK  151  A    between atoms: _350  and  _352
REMARK  152  A    between atoms: _352  and  _353
REMARK  153  A    between atoms: _352  and  _355
REMARK  154  A    between atoms: _358  and  _360
REMARK  155  A    between atoms: _360  and  _361
REMARK  156  A    between atoms: _360  and  _363
REMARK  157  A    between atoms: _363  and  _364
REMARK  158  A    between atoms: _367  and  _369
REMARK  159  A    between atoms: _369  and  _370
REMARK  160  A    between atoms: _372  and  _374
REMARK  161  A    between atoms: _374  and  _375
REMARK  162  A    between atoms: _374  and  _377
REMARK  163  A    between atoms: _377  and  _378
REMARK  164  A    between atoms: _385  and  _386
REMARK  165  A    between atoms: _391  and  _393
REMARK  166  A    between atoms: _393  and  _394
REMARK  167  A    between atoms: _393  and  _396
REMARK  168  A    between atoms: _396  and  _397
REMARK  169  A    between atoms: _397  and  _398
REMARK  170  A    between atoms: _398  and  _399
REMARK  171  A    between atoms: _408  and  _410
REMARK  172  A    between atoms: _410  and  _411
REMARK  173  A    between atoms: _410  and  _413
REMARK  174  A    between atoms: _413  and  _414
REMARK  175  A    between atoms: _417  and  _419
REMARK  176  A    between atoms: _419  and  _420
REMARK  177  A    between atoms: _419  and  _422
REMARK  178  A    between atoms: _422  and  _423
REMARK  179  A    between atoms: _423  and  _424
REMARK  180  A    between atoms: _429  and  _431
REMARK  181  A    between atoms: _431  and  _432
REMARK  182  A    between atoms: _431  and  _434
REMARK  183  A    between atoms: _434  and  _435
REMARK  184  A    between atoms: _441  and  _443
REMARK  185  A    between atoms: _443  and  _444
REMARK  186  A    between atoms: _443  and  _446
REMARK  187  A    between atoms: _449  and  _451
REMARK  188  A    between atoms: _451  and  _452
REMARK  189  A    between atoms: _451  and  _454
REMARK  190  A    between atoms: _454  and  _455
REMARK  191  A    between atoms: _458  and  _460
REMARK  192  A    between atoms: _460  and  _461
REMARK  193  A    between atoms: _460  and  _463
REMARK  194  A    between atoms: _463  and  _464
REMARK  195  A    between atoms: _467  and  _469
REMARK  196  A    between atoms: _469  and  _470
REMARK  197  A    between atoms: _469  and  _472
REMARK  198  A    between atoms: _475  and  _477
REMARK  199  A    between atoms: _477  and  _478
REMARK  200  A    between atoms: _477  and  _480
REMARK  201  A    between atoms: _480  and  _481
REMARK  202  A    between atoms: _484  and  _486
REMARK  203  A    between atoms: _486  and  _487
REMARK  204  A    between atoms: _486  and  _489
REMARK  205  A    between atoms: _489  and  _490
REMARK  206  A    between atoms: _490  and  _491
REMARK  207  A    between atoms: _491  and  _492
REMARK  208  A    between atoms: _501  and  _503
REMARK  209  A    between atoms: _503  and  _504
REMARK  210  A    between atoms: _503  and  _506
REMARK  211  A    between atoms: _506  and  _507
REMARK  212  A    between atoms: _510  and  _512
REMARK  213  A    between atoms: _512  and  _513
REMARK  214  A    between atoms: _512  and  _515
REMARK  215  A    between atoms: _518  and  _520
REMARK  216  A    between atoms: _520  and  _521
REMARK  217  A    between atoms: _523  and  _525
REMARK  218  A    between atoms: _525  and  _526
REMARK  219  A    between atoms: _525  and  _528
REMARK  220  A    between atoms: _528  and  _529
REMARK  221  A    between atoms: _529  and  _530
REMARK  222  A    between atoms: _530  and  _531
REMARK  223  A    between atoms: _540  and  _542
REMARK  224  A    between atoms: _542  and  _543
REMARK  225  A    between atoms: _542  and  _545
REMARK  226  A    between atoms: _545  and  _546
REMARK  227  A    between atoms: _546  and  _547
REMARK  228  A    between atoms: _547  and  _548
REMARK  229  A    between atoms: _557  and  _559
REMARK  230  A    between atoms: _559  and  _560
REMARK  231  A    between atoms: _559  and  _562
REMARK  232  A    between atoms: _565  and  _567
REMARK  233  A    between atoms: _567  and  _568
REMARK  234  A    between atoms: _570  and  _572
REMARK  235  A    between atoms: _572  and  _573
REMARK  236  A    between atoms: _572  and  _575
REMARK  237  A    between atoms: _575  and  _576
REMARK  238  A    between atoms: _576  and  _577
REMARK  239  A    between atoms: _577  and  _578
REMARK  240  A    between atoms: _587  and  _589
REMARK  241  A    between atoms: _589  and  _590
REMARK  242  A    between atoms: _589  and  _592
REMARK  243  A    between atoms: _595  and  _597
REMARK  244  A    between atoms: _597  and  _598
REMARK  245  A    between atoms: _597  and  _600
REMARK  246  A    between atoms: _600  and  _601
REMARK  247  A    between atoms: _606  and  _607
REMARK  248  A    between atoms: _609  and  _611
REMARK  249  A    between atoms: _611  and  _612
REMARK  250  A    between atoms: _611  and  _614
REMARK  251  A    between atoms: _614  and  _615
REMARK  252  A    between atoms: _620  and  _622
REMARK  253  A    between atoms: _622  and  _623
REMARK  254  A    between atoms: _622  and  _625
REMARK  255  A    between atoms: _628  and  _630
REMARK  256  A    between atoms: _630  and  _631
REMARK  257  A    between atoms: _630  and  _633
REMARK  258  A    between atoms: _633  and  _634
REMARK  259  A    between atoms: _634  and  _635
REMARK  260  A    between atoms: _635  and  _636
REMARK  261  A    between atoms: _636  and  _637
REMARK  262  A    between atoms: _641  and  _643
REMARK  263  A    between atoms: _643  and  _644
REMARK  264  A    between atoms: _643  and  _646
REMARK  265  A    between atoms: _646  and  _647
REMARK  266  A    between atoms: _653  and  _655
REMARK  267  A    between atoms: _655  and  _656
REMARK  268  A    between atoms: _655  and  _658
REMARK  269  A    between atoms: _658  and  _659
REMARK  270  A    between atoms: _665  and  _666
REMARK  271  A    between atoms: _671  and  _673
REMARK  272  A    between atoms: _673  and  _674
REMARK  273  A    between atoms: _673  and  _676
REMARK  274  A    between atoms: _676  and  _677
REMARK  275  A    between atoms: _677  and  _678
REMARK  276  A    between atoms: _678  and  _679
REMARK  277  A    between atoms: _688  and  _690
REMARK  278  A    between atoms: _690  and  _691
REMARK  279  A    between atoms: _690  and  _693
REMARK  280  A    between atoms: _693  and  _694
REMARK  281  A    between atoms: _697  and  _699
REMARK  282  A    between atoms: _699  and  _700
REMARK  283  A    between atoms: _699  and  _702
REMARK  284  A    between atoms: _702  and  _703
REMARK  285  A    between atoms: _706  and  _708
REMARK  286  A    between atoms: _708  and  _709
REMARK  287  A    between atoms: _708  and  _711
REMARK  288  A    between atoms: _711  and  _712
REMARK  289  A    between atoms: _715  and  _717
REMARK  290  A    between atoms: _717  and  _718
REMARK  291  A    between atoms: _717  and  _720
REMARK  292  A    between atoms: _723  and  _725
REMARK  293  A    between atoms: _725  and  _726
REMARK  294  A    between atoms: _725  and  _728
REMARK  295  A    between atoms: _728  and  _729
REMARK  296  A    between atoms: _729  and  _730
REMARK  297  A    between atoms: _730  and  _731
REMARK  298  A    between atoms: _731  and  _732
REMARK  299  A    between atoms: _736  and  _738
REMARK  300  A    between atoms: _738  and  _739
REMARK  301  A    between atoms: _738  and  _741
REMARK  302  A    between atoms: _741  and  _742
REMARK  303  A    between atoms: _742  and  _743
REMARK  304  A    between atoms: _743  and  _744
REMARK  305  A    between atoms: _753  and  _755
REMARK  306  A    between atoms: _755  and  _756
REMARK  307  A    between atoms: _755  and  _758
REMARK  308  A    between atoms: _758  and  _759
REMARK  309  A    between atoms: _762  and  _764
REMARK  310  A    between atoms: _764  and  _765
REMARK  311  A    between atoms: _764  and  _767
REMARK  312  A    between atoms: _767  and  _768
REMARK  313  A    between atoms: _768  and  _769
REMARK  314  A    between atoms: _772  and  _774
REMARK  315  A    between atoms: _774  and  _775
REMARK  316  A    between atoms: _774  and  _777
REMARK  317  A    between atoms: _777  and  _778
REMARK  318  A    between atoms: _788  and  _790
REMARK  319  A    between atoms: _790  and  _791
REMARK  320  A    between atoms: _790  and  _793
REMARK  321  A    between atoms: _793  and  _794
REMARK  322  A    between atoms: _797  and  _799
REMARK  323  A    between atoms: _799  and  _800
REMARK  324  A    between atoms: _799  and  _802
REMARK  325  A    between atoms: _802  and  _803
REMARK  326  A    between atoms: _806  and  _808
REMARK  327  A    between atoms: _808  and  _809
REMARK  328  A    between atoms: _811  and  _813
REMARK  329  A    between atoms: _813  and  _814
REMARK  330  A    between atoms: _813  and  _816
REMARK  331  A    between atoms: _816  and  _817
REMARK  332  A    between atoms: _820  and  _822
REMARK  333  A    between atoms: _822  and  _823
REMARK  334  A    between atoms: _822  and  _825
REMARK  335  A    between atoms: _825  and  _826
REMARK  336  A    between atoms: _826  and  _827
REMARK  337  A    between atoms: _827  and  _828
REMARK  338  A    between atoms: _828  and  _829
REMARK  339  A    between atoms: _834  and  _835
REMARK  340  A    between atoms: _840  and  _842
REMARK  341  A    between atoms: _842  and  _843
REMARK  342  A    between atoms: _842  and  _845
REMARK  343  A    between atoms: _848  and  _850
REMARK  344  A    between atoms: _850  and  _851
REMARK  345  A    between atoms: _854  and  _856
REMARK  346  A    between atoms: _856  and  _857
REMARK  347  A    between atoms: _856  and  _859
REMARK  348  A    between atoms: _859  and  _860
REMARK  349  A    between atoms: _860  and  _861
REMARK  350  A    between atoms: _864  and  _866
REMARK  351  A    between atoms: _866  and  _867
REMARK  352  A    between atoms: _866  and  _869
REMARK  353  A    between atoms: _872  and  _874
REMARK  354  A    between atoms: _874  and  _875
REMARK  355  A    between atoms: _874  and  _877
REMARK  356  A    between atoms: _877  and  _878
REMARK  357  A    between atoms: _878  and  _879
REMARK  358  A    between atoms: _879  and  _880
REMARK                            x       y       z     vdW  Elec       q    Type
REMARK                         _______ _______ _______ _____ _____    ______ ____
ROOT
ATOM      1  O   HOH     1     -17.393  23.028 -35.397  0.00  0.00    +0.000 OA
ENDROOT
TORSDOF 0
REMARK  Name = ../refined-set-2016/4x8o/4x8o_pocket.pdb
REMARK  358 active torsions:
REMARK  status: ('A' for Active; 'I' for Inactive)
REMARK    1  A    between atoms: _1  and  _3
REMARK    2  A    between atoms: _3  and  _4
REMARK    3  A    between atoms: _3  and  _6
REMARK    4  A    between atoms: _6  and  _7
REMARK    5  A    between atoms: _10  and  _12
REMARK    6  A    between atoms: _12  and  _13
REMARK    7  A    between atoms: _12  and  _15
REMARK    8  A    between atoms: _15  and  _16
REMARK    9  A    between atoms: _19  and  _21
REMARK   10  A    between atoms: _21  and  _22
REMARK   11  A    between atoms: _24  and  _26
REMARK   12  A    between atoms: _26  and  _27
REMARK   13  A    between atoms: _31  and  _32
REMARK   14  A    between atoms: _37  and  _39
REMARK   15  A    between atoms: _39  and  _40
REMARK   16  A    between atoms: _42  and  _44
REMARK   17  A    between atoms: _44  and  _45
REMARK   18  A    between atoms: _48  and  _50
REMARK   19  A    between atoms: _50  and  _51
REMARK   20  A    between atoms: _53  and  _55
REMARK   21  A    between atoms: _55  and  _56
REMARK   22  A    between atoms: _55  and  _58
REMARK   23  A    between atoms: _58  and  _59
REMARK   24  A    between atoms: _59  and  _60
REMARK   25  A    between atoms: _60  and  _61
REMARK   26  A    between atoms: _61  and  _62
REMARK   27  A    between atoms: _66  and  _68
REMARK   28  A    between atoms: _68  and  _69
REMARK   29  A    between atoms: _71  and  _73
REMARK   30  A    between atoms: _73  and  _74
REMARK   31  A    between atoms: _73  and  _76
REMARK   32  A    between atoms: _76  and  _77
REMARK   33  A    between atoms: _80  and  _82
REMARK   34  A    between atoms: _82  and  _83
REMARK   35  A    between atoms: _82  and  _85
REMARK   36  A    between atoms: _85  and  _86
REMARK   37  A    between atoms: _86  and  _87
REMARK   38  A    between atoms: _92  and  _94
REMARK   39  A    between atoms: _94  and  _95
REMARK   40  A    between atoms: _98  and  _100
REMARK   41  A    between atoms: _100  and  _101
REMARK   42  A    between atoms: _100  and  _103
REMARK   43  A    between atoms: _103  and  _104
REMARK   44  A    between atoms: _104  and  _105
REMARK   45  A    between atoms: _110  and  _112
REMARK   46  A    between atoms: _112  and  _113
REMARK   47  A    between atoms: _112  and  _115
REMARK   48  A    between atoms: _115  and  _116
REMARK   49  A    between atoms: _122  and  _124
REMARK   50  A    between atoms: _124  and  _125
REMARK   51  A    between atoms: _124  and  _127
REMARK   52  A    between atoms: _127  and  _128
REMARK   53  A    between atoms: _128  and  _129
REMARK   54  A    between atoms: _134  and  _136
REMARK   55  A    between atoms: _136  and  _137
REMARK   56  A    between atoms: _136  and  _139
REMARK   57  A    between atoms: _139  and  _140
REMARK   58  A    between atoms: _142  and  _144
REMARK   59  A    between atoms: _144  and  _145
REMARK   60  A    between atoms: _144  and  _147
REMARK   61  A    between atoms: _147  and  _148
REMARK   62  A    between atoms: _151  and  _153
REMARK   63  A    between atoms: _153  and  _154
REMARK   64  A    between atoms: _156  and  _158
REMARK   65  A    between atoms: _158  and  _159
REMARK   66  A    between atoms: _158  and  _161
REMARK   67  A    between atoms: _161  and  _162
REMARK   68  A    between atoms: _165  and  _167
REMARK   69  A    between atoms: _167  and  _168
REMARK   70  A    between atoms: _167  and  _170
REMARK   71  A    between atoms: _170  and  _171
REMARK   72  A    between atoms: _171  and  _172
REMARK   73  A    between atoms: _174  and  _176
REMARK   74  A    between atoms: _176  and  _177
REMARK   75  A    between atoms: _176  and  _179
REMARK   76  A    between atoms: _179  and  _180
REMARK   77  A    between atoms: _183  and  _185
REMARK   78  A    between atoms: _185  and  _186
REMARK   79  A    between atoms: _185  and  _188
REMARK   80  A    between atoms: _188  and  _189
REMARK   81  A    between atoms: _189  and  _190
REMARK   82  A    between atoms: _190  and  _191
REMARK   83  A    between atoms: _200  and  _202
REMARK   84  A    between atoms: _202  and  _203
REMARK   85  A    between atoms: _206  and  _208
REMARK   86  A    between atoms: _208  and  _209
REMARK   87  A    between atoms: _208  and  _211
REMARK   88  A    between atoms: _211  and  _212
REMARK   89  A    between atoms: _212  and  _213
REMARK   90  A    between atoms: _213  and  _214
REMARK   91  A    between atoms: _214  and  _215
REMARK   92  A    between atoms: _219  and  _221
REMARK   93  A    between atoms: _221  and  _222
REMARK   94  A    between atoms: _221  and  _224
REMARK   95  A    between atoms: _224  and  _225
REMARK   96  A    between atoms: _228  and  _230
REMARK   97  A    between atoms: _230  and  _231
REMARK   98  A    between atoms: _230  and  _233
REMARK   99  A    between atoms: _233  and  _234
REMARK  100  A    between atoms: _237  and  _239
REMARK  101  A    between atoms: _239  and  _240
REMARK  102  A    between atoms: _239  and  _242
REMARK  103  A    between atoms: _242  and  _243
REMARK  104  A    between atoms: _243  and  _244
REMARK  105  A    between atoms: _246  and  _248
REMARK  106  A    between atoms: _248  and  _249
REMARK  107  A    between atoms: _248  and  _251
REMARK  108  A    between atoms: _251  and  _252
REMARK  109  A    between atoms: _255  and  _257
REMARK  110  A    between atoms: _257  and  _258
REMARK  111  A    between atoms: _261  and  _263
REMARK  112  A    between atoms: _263  and  _264
REMARK  113  A    between atoms: _266  and  _268
REMARK  114  A    between atoms: _268  and  _269
REMARK  115  A    between atoms: _268  and  _271
REMARK  116  A    between atoms: _271  and  _272
REMARK  117  A    between atoms: _272  and  _273
REMARK  118  A    between atoms: _273  and  _274
REMARK  119  A    between atoms: _274  and  _275
REMARK  120  A    between atoms: _279  and  _281
REMARK  121  A    between atoms: _281  and  _282
REMARK  122  A    between atoms: _281  and  _284
REMARK  123  A    between atoms: _284  and  _285
REMARK  124  A    between atoms: _288  and  _290
REMARK  125  A    between atoms: _290  and  _291
REMARK  126  A    between atoms: _290  and  _293
REMARK  127  A    between atoms: _296  and  _298
REMARK  128  A    between atoms: _298  and  _299
REMARK  129  A    between atoms: _298  and  _301
REMARK  130  A    between atoms: _301  and  _302
REMARK  131  A    between atoms: _305  and  _307
REMARK  132  A    between atoms: _307  and  _308
REMARK  133  A    between atoms: _307  and  _310
REMARK  134  A    between atoms: _310  and  _311
REMARK  135  A    between atoms: _314  and  _316
REMARK  136  A    between atoms: _316  and  _317
REMARK  137  A    between atoms: _316  and  _319
REMARK  138  A    between atoms: _319  and  _320
REMARK  139  A    between atoms: _320  and  _321
REMARK  140  A    between atoms: _324  and  _326
REMARK  141  A    between atoms: _326  and  _327
REMARK  142  A    between atoms: _326  and  _329
REMARK  143  A    between atoms: _329  and  _330
REMARK  144  A    between atoms: _333  and  _335
REMARK  145  A    between atoms: _335  and  _336
REMARK  146  A    between atoms: _335  and  _338
REMARK  147  A    between atoms: _341  and  _343
REMARK  148  A    between atoms: _343  and  _344
REMARK  149  A    between atoms: _343  and  _346
REMARK  150  A    between atoms: _346  and  _347
REMARK  151  A    between atoms: _350  and  _352
REMARK  152  A    between atoms: _352  and  _353
REMARK  153  A    between atoms: _352  and  _355
REMARK  154  A    between atoms: _358  and  _360
REMARK  155  A    between atoms: _360  and  _361
REMARK  156  A    between atoms: _360  and  _363
REMARK  157  A    between atoms: _363  and  _364
REMARK  158  A    between atoms: _367  and  _369
REMARK  159  A    between atoms: _369  and  _370
REMARK  160  A    between atoms: _372  and  _374
REMARK  161  A    between atoms: _374  and  _375
REMARK  162  A    between atoms: _374  and  _377
REMARK  163  A    between atoms: _377  and  _378
REMARK  164  A    between atoms: _385  and  _386
REMARK  165  A    between atoms: _391  and  _393
REMARK  166  A    between atoms: _393  and  _394
REMARK  167  A    between atoms: _393  and  _396
REMARK  168  A    between atoms: _396  and  _397
REMARK  169  A    between atoms: _397  and  _398
REMARK  170  A    between atoms: _398  and  _399
REMARK  171  A    between atoms: _408  and  _410
REMARK  172  A    between atoms: _410  and  _411
REMARK  173  A    between atoms: _410  and  _413
REMARK  174  A    between atoms: _413  and  _414
REMARK  175  A    between atoms: _417  and  _419
REMARK  176  A    between atoms: _419  and  _420
REMARK  177  A    between atoms: _419  and  _422
REMARK  178  A    between atoms: _422  and  _423
REMARK  179  A    between atoms: _423  and  _424
REMARK  180  A    between atoms: _429  and  _431
REMARK  181  A    between atoms: _431  and  _432
REMARK  182  A    between atoms: _431  and  _434
REMARK  183  A    between atoms: _434  and  _435
REMARK  184  A    between atoms: _441  and  _443
REMARK  185  A    between atoms: _443  and  _444
REMARK  186  A    between atoms: _443  and  _446
REMARK  187  A    between atoms: _449  and  _451
REMARK  188  A    between atoms: _451  and  _452
REMARK  189  A    between atoms: _451  and  _454
REMARK  190  A    between atoms: _454  and  _455
REMARK  191  A    between atoms: _458  and  _460
REMARK  192  A    between atoms: _460  and  _461
REMARK  193  A    between atoms: _460  and  _463
REMARK  194  A    between atoms: _463  and  _464
REMARK  195  A    between atoms: _467  and  _469
REMARK  196  A    between atoms: _469  and  _470
REMARK  197  A    between atoms: _469  and  _472
REMARK  198  A    between atoms: _475  and  _477
REMARK  199  A    between atoms: _477  and  _478
REMARK  200  A    between atoms: _477  and  _480
REMARK  201  A    between atoms: _480  and  _481
REMARK  202  A    between atoms: _484  and  _486
REMARK  203  A    between atoms: _486  and  _487
REMARK  204  A    between atoms: _486  and  _489
REMARK  205  A    between atoms: _489  and  _490
REMARK  206  A    between atoms: _490  and  _491
REMARK  207  A    between atoms: _491  and  _492
REMARK  208  A    between atoms: _501  and  _503
REMARK  209  A    between atoms: _503  and  _504
REMARK  210  A    between atoms: _503  and  _506
REMARK  211  A    between atoms: _506  and  _507
REMARK  212  A    between atoms: _510  and  _512
REMARK  213  A    between atoms: _512  and  _513
REMARK  214  A    between atoms: _512  and  _515
REMARK  215  A    between atoms: _518  and  _520
REMARK  216  A    between atoms: _520  and  _521
REMARK  217  A    between atoms: _523  and  _525
REMARK  218  A    between atoms: _525  and  _526
REMARK  219  A    between atoms: _525  and  _528
REMARK  220  A    between atoms: _528  and  _529
REMARK  221  A    between atoms: _529  and  _530
REMARK  222  A    between atoms: _530  and  _531
REMARK  223  A    between atoms: _540  and  _542
REMARK  224  A    between atoms: _542  and  _543
REMARK  225  A    between atoms: _542  and  _545
REMARK  226  A    between atoms: _545  and  _546
REMARK  227  A    between atoms: _546  and  _547
REMARK  228  A    between atoms: _547  and  _548
REMARK  229  A    between atoms: _557  and  _559
REMARK  230  A    between atoms: _559  and  _560
REMARK  231  A    between atoms: _559  and  _562
REMARK  232  A    between atoms: _565  and  _567
REMARK  233  A    between atoms: _567  and  _568
REMARK  234  A    between atoms: _570  and  _572
REMARK  235  A    between atoms: _572  and  _573
REMARK  236  A    between atoms: _572  and  _575
REMARK  237  A    between atoms: _575  and  _576
REMARK  238  A    between atoms: _576  and  _577
REMARK  239  A    between atoms: _577  and  _578
REMARK  240  A    between atoms: _587  and  _589
REMARK  241  A    between atoms: _589  and  _590
REMARK  242  A    between atoms: _589  and  _592
REMARK  243  A    between atoms: _595  and  _597
REMARK  244  A    between atoms: _597  and  _598
REMARK  245  A    between atoms: _597  and  _600
REMARK  246  A    between atoms: _600  and  _601
REMARK  247  A    between atoms: _606  and  _607
REMARK  248  A    between atoms: _609  and  _611
REMARK  249  A    between atoms: _611  and  _612
REMARK  250  A    between atoms: _611  and  _614
REMARK  251  A    between atoms: _614  and  _615
REMARK  252  A    between atoms: _620  and  _622
REMARK  253  A    between atoms: _622  and  _623
REMARK  254  A    between atoms: _622  and  _625
REMARK  255  A    between atoms: _628  and  _630
REMARK  256  A    between atoms: _630  and  _631
REMARK  257  A    between atoms: _630  and  _633
REMARK  258  A    between atoms: _633  and  _634
REMARK  259  A    between atoms: _634  and  _635
REMARK  260  A    between atoms: _635  and  _636
REMARK  261  A    between atoms: _636  and  _637
REMARK  262  A    between atoms: _641  and  _643
REMARK  263  A    between atoms: _643  and  _644
REMARK  264  A    between atoms: _643  and  _646
REMARK  265  A    between atoms: _646  and  _647
REMARK  266  A    between atoms: _653  and  _655
REMARK  267  A    between atoms: _655  and  _656
REMARK  268  A    between atoms: _655  and  _658
REMARK  269  A    between atoms: _658  and  _659
REMARK  270  A    between atoms: _665  and  _666
REMARK  271  A    between atoms: _671  and  _673
REMARK  272  A    between atoms: _673  and  _674
REMARK  273  A    between atoms: _673  and  _676
REMARK  274  A    between atoms: _676  and  _677
REMARK  275  A    between atoms: _677  and  _678
REMARK  276  A    between atoms: _678  and  _679
REMARK  277  A    between atoms: _688  and  _690
REMARK  278  A    between atoms: _690  and  _691
REMARK  279  A    between atoms: _690  and  _693
REMARK  280  A    between atoms: _693  and  _694
REMARK  281  A    between atoms: _697  and  _699
REMARK  282  A    between atoms: _699  and  _700
REMARK  283  A    between atoms: _699  and  _702
REMARK  284  A    between atoms: _702  and  _703
REMARK  285  A    between atoms: _706  and  _708
REMARK  286  A    between atoms: _708  and  _709
REMARK  287  A    between atoms: _708  and  _711
REMARK  288  A    between atoms: _711  and  _712
REMARK  289  A    between atoms: _715  and  _717
REMARK  290  A    between atoms: _717  and  _718
REMARK  291  A    between atoms: _717  and  _720
REMARK  292  A    between atoms: _723  and  _725
REMARK  293  A    between atoms: _725  and  _726
REMARK  294  A    between atoms: _725  and  _728
REMARK  295  A    between atoms: _728  and  _729
REMARK  296  A    between atoms: _729  and  _730
REMARK  297  A    between atoms: _730  and  _731
REMARK  298  A    between atoms: _731  and  _732
REMARK  299  A    between atoms: _736  and  _738
REMARK  300  A    between atoms: _738  and  _739
REMARK  301  A    between atoms: _738  and  _741
REMARK  302  A    between atoms: _741  and  _742
REMARK  303  A    between atoms: _742  and  _743
REMARK  304  A    between atoms: _743  and  _744
REMARK  305  A    between atoms: _753  and  _755
REMARK  306  A    between atoms: _755  and  _756
REMARK  307  A    between atoms: _755  and  _758
REMARK  308  A    between atoms: _758  and  _759
REMARK  309  A    between atoms: _762  and  _764
REMARK  310  A    between atoms: _764  and  _765
REMARK  311  A    between atoms: _764  and  _767
REMARK  312  A    between atoms: _767  and  _768
REMARK  313  A    between atoms: _768  and  _769
REMARK  314  A    between atoms: _772  and  _774
REMARK  315  A    between atoms: _774  and  _775
REMARK  316  A    between atoms: _774  and  _777
REMARK  317  A    between atoms: _777  and  _778
REMARK  318  A    between atoms: _788  and  _790
REMARK  319  A    between atoms: _790  and  _791
REMARK  320  A    between atoms: _790  and  _793
REMARK  321  A    between atoms: _793  and  _794
REMARK  322  A    between atoms: _797  and  _799
REMARK  323  A    between atoms: _799  and  _800
REMARK  324  A    between atoms: _799  and  _802
REMARK  325  A    between atoms: _802  and  _803
REMARK  326  A    between atoms: _806  and  _808
REMARK  327  A    between atoms: _808  and  _809
REMARK  328  A    between atoms: _811  and  _813
REMARK  329  A    between atoms: _813  and  _814
REMARK  330  A    between atoms: _813  and  _816
REMARK  331  A    between atoms: _816  and  _817
REMARK  332  A    between atoms: _820  and  _822
REMARK  333  A    between atoms: _822  and  _823
REMARK  334  A    between atoms: _822  and  _825
REMARK  335  A    between atoms: _825  and  _826
REMARK  336  A    between atoms: _826  and  _827
REMARK  337  A    between atoms: _827  and  _828
REMARK  338  A    between atoms: _828  and  _829
REMARK  339  A    between atoms: _834  and  _835
REMARK  340  A    between atoms: _840  and  _842
REMARK  341  A    between atoms: _842  and  _843
REMARK  342  A    between atoms: _842  and  _845
REMARK  343  A    between atoms: _848  and  _850
REMARK  344  A    between atoms: _850  and  _851
REMARK  345  A    between atoms: _854  and  _856
REMARK  346  A    between atoms: _856  and  _857
REMARK  347  A    between atoms: _856  and  _859
REMARK  348  A    between atoms: _859  and  _860
REMARK  349  A    between atoms: _860  and  _861
REMARK  350  A    between atoms: _864  and  _866
REMARK  351  A    between atoms: _866  and  _867
REMARK  352  A    between atoms: _866  and  _869
REMARK  353  A    between atoms: _872  and  _874
REMARK  354  A    between atoms: _874  and  _875
REMARK  355  A    between atoms: _874  and  _877
REMARK  356  A    between atoms: _877  and  _878
REMARK  357  A    between atoms: _878  and  _879
REMARK  358  A    between atoms: _879  and  _880
REMARK                            x       y       z     vdW  Elec       q    Type
REMARK                         _______ _______ _______ _____ _____    ______ ____
ROOT
ATOM      1  O   HOH     1     -14.893   8.825 -36.514  0.00  0.00    +0.000 OA
ENDROOT
TORSDOF 0
REMARK  Name = ../refined-set-2016/4x8o/4x8o_pocket.pdb
REMARK  358 active torsions:
REMARK  status: ('A' for Active; 'I' for Inactive)
REMARK    1  A    between atoms: _1  and  _3
REMARK    2  A    between atoms: _3  and  _4
REMARK    3  A    between atoms: _3  and  _6
REMARK    4  A    between atoms: _6  and  _7
REMARK    5  A    between atoms: _10  and  _12
REMARK    6  A    between atoms: _12  and  _13
REMARK    7  A    between atoms: _12  and  _15
REMARK    8  A    between atoms: _15  and  _16
REMARK    9  A    between atoms: _19  and  _21
REMARK   10  A    between atoms: _21  and  _22
REMARK   11  A    between atoms: _24  and  _26
REMARK   12  A    between atoms: _26  and  _27
REMARK   13  A    between atoms: _31  and  _32
REMARK   14  A    between atoms: _37  and  _39
REMARK   15  A    between atoms: _39  and  _40
REMARK   16  A    between atoms: _42  and  _44
REMARK   17  A    between atoms: _44  and  _45
REMARK   18  A    between atoms: _48  and  _50
REMARK   19  A    between atoms: _50  and  _51
REMARK   20  A    between atoms: _53  and  _55
REMARK   21  A    between atoms: _55  and  _56
REMARK   22  A    between atoms: _55  and  _58
REMARK   23  A    between atoms: _58  and  _59
REMARK   24  A    between atoms: _59  and  _60
REMARK   25  A    between atoms: _60  and  _61
REMARK   26  A    between atoms: _61  and  _62
REMARK   27  A    between atoms: _66  and  _68
REMARK   28  A    between atoms: _68  and  _69
REMARK   29  A    between atoms: _71  and  _73
REMARK   30  A    between atoms: _73  and  _74
REMARK   31  A    between atoms: _73  and  _76
REMARK   32  A    between atoms: _76  and  _77
REMARK   33  A    between atoms: _80  and  _82
REMARK   34  A    between atoms: _82  and  _83
REMARK   35  A    between atoms: _82  and  _85
REMARK   36  A    between atoms: _85  and  _86
REMARK   37  A    between atoms: _86  and  _87
REMARK   38  A    between atoms: _92  and  _94
REMARK   39  A    between atoms: _94  and  _95
REMARK   40  A    between atoms: _98  and  _100
REMARK   41  A    between atoms: _100  and  _101
REMARK   42  A    between atoms: _100  and  _103
REMARK   43  A    between atoms: _103  and  _104
REMARK   44  A    between atoms: _104  and  _105
REMARK   45  A    between atoms: _110  and  _112
REMARK   46  A    between atoms: _112  and  _113
REMARK   47  A    between atoms: _112  and  _115
REMARK   48  A    between atoms: _115  and  _116
REMARK   49  A    between atoms: _122  and  _124
REMARK   50  A    between atoms: _124  and  _125
REMARK   51  A    between atoms: _124  and  _127
REMARK   52  A    between atoms: _127  and  _128
REMARK   53  A    between atoms: _128  and  _129
REMARK   54  A    between atoms: _134  and  _136
REMARK   55  A    between atoms: _136  and  _137
REMARK   56  A    between atoms: _136  and  _139
REMARK   57  A    between atoms: _139  and  _140
REMARK   58  A    between atoms: _142  and  _144
REMARK   59  A    between atoms: _144  and  _145
REMARK   60  A    between atoms: _144  and  _147
REMARK   61  A    between atoms: _147  and  _148
REMARK   62  A    between atoms: _151  and  _153
REMARK   63  A    between atoms: _153  and  _154
REMARK   64  A    between atoms: _156  and  _158
REMARK   65  A    between atoms: _158  and  _159
REMARK   66  A    between atoms: _158  and  _161
REMARK   67  A    between atoms: _161  and  _162
REMARK   68  A    between atoms: _165  and  _167
REMARK   69  A    between atoms: _167  and  _168
REMARK   70  A    between atoms: _167  and  _170
REMARK   71  A    between atoms: _170  and  _171
REMARK   72  A    between atoms: _171  and  _172
REMARK   73  A    between atoms: _174  and  _176
REMARK   74  A    between atoms: _176  and  _177
REMARK   75  A    between atoms: _176  and  _179
REMARK   76  A    between atoms: _179  and  _180
REMARK   77  A    between atoms: _183  and  _185
REMARK   78  A    between atoms: _185  and  _186
REMARK   79  A    between atoms: _185  and  _188
REMARK   80  A    between atoms: _188  and  _189
REMARK   81  A    between atoms: _189  and  _190
REMARK   82  A    between atoms: _190  and  _191
REMARK   83  A    between atoms: _200  and  _202
REMARK   84  A    between atoms: _202  and  _203
REMARK   85  A    between atoms: _206  and  _208
REMARK   86  A    between atoms: _208  and  _209
REMARK   87  A    between atoms: _208  and  _211
REMARK   88  A    between atoms: _211  and  _212
REMARK   89  A    between atoms: _212  and  _213
REMARK   90  A    between atoms: _213  and  _214
REMARK   91  A    between atoms: _214  and  _215
REMARK   92  A    between atoms: _219  and  _221
REMARK   93  A    between atoms: _221  and  _222
REMARK   94  A    between atoms: _221  and  _224
REMARK   95  A    between atoms: _224  and  _225
REMARK   96  A    between atoms: _228  and  _230
REMARK   97  A    between atoms: _230  and  _231
REMARK   98  A    between atoms: _230  and  _233
REMARK   99  A    between atoms: _233  and  _234
REMARK  100  A    between atoms: _237  and  _239
REMARK  101  A    between atoms: _239  and  _240
REMARK  102  A    between atoms: _239  and  _242
REMARK  103  A    between atoms: _242  and  _243
REMARK  104  A    between atoms: _243  and  _244
REMARK  105  A    between atoms: _246  and  _248
REMARK  106  A    between atoms: _248  and  _249
REMARK  107  A    between atoms: _248  and  _251
REMARK  108  A    between atoms: _251  and  _252
REMARK  109  A    between atoms: _255  and  _257
REMARK  110  A    between atoms: _257  and  _258
REMARK  111  A    between atoms: _261  and  _263
REMARK  112  A    between atoms: _263  and  _264
REMARK  113  A    between atoms: _266  and  _268
REMARK  114  A    between atoms: _268  and  _269
REMARK  115  A    between atoms: _268  and  _271
REMARK  116  A    between atoms: _271  and  _272
REMARK  117  A    between atoms: _272  and  _273
REMARK  118  A    between atoms: _273  and  _274
REMARK  119  A    between atoms: _274  and  _275
REMARK  120  A    between atoms: _279  and  _281
REMARK  121  A    between atoms: _281  and  _282
REMARK  122  A    between atoms: _281  and  _284
REMARK  123  A    between atoms: _284  and  _285
REMARK  124  A    between atoms: _288  and  _290
REMARK  125  A    between atoms: _290  and  _291
REMARK  126  A    between atoms: _290  and  _293
REMARK  127  A    between atoms: _296  and  _298
REMARK  128  A    between atoms: _298  and  _299
REMARK  129  A    between atoms: _298  and  _301
REMARK  130  A    between atoms: _301  and  _302
REMARK  131  A    between atoms: _305  and  _307
REMARK  132  A    between atoms: _307  and  _308
REMARK  133  A    between atoms: _307  and  _310
REMARK  134  A    between atoms: _310  and  _311
REMARK  135  A    between atoms: _314  and  _316
REMARK  136  A    between atoms: _316  and  _317
REMARK  137  A    between atoms: _316  and  _319
REMARK  138  A    between atoms: _319  and  _320
REMARK  139  A    between atoms: _320  and  _321
REMARK  140  A    between atoms: _324  and  _326
REMARK  141  A    between atoms: _326  and  _327
REMARK  142  A    between atoms: _326  and  _329
REMARK  143  A    between atoms: _329  and  _330
REMARK  144  A    between atoms: _333  and  _335
REMARK  145  A    between atoms: _335  and  _336
REMARK  146  A    between atoms: _335  and  _338
REMARK  147  A    between atoms: _341  and  _343
REMARK  148  A    between atoms: _343  and  _344
REMARK  149  A    between atoms: _343  and  _346
REMARK  150  A    between atoms: _346  and  _347
REMARK  151  A    between atoms: _350  and  _352
REMARK  152  A    between atoms: _352  and  _353
REMARK  153  A    between atoms: _352  and  _355
REMARK  154  A    between atoms: _358  and  _360
REMARK  155  A    between atoms: _360  and  _361
REMARK  156  A    between atoms: _360  and  _363
REMARK  157  A    between atoms: _363  and  _364
REMARK  158  A    between atoms: _367  and  _369
REMARK  159  A    between atoms: _369  and  _370
REMARK  160  A    between atoms: _372  and  _374
REMARK  161  A    between atoms: _374  and  _375
REMARK  162  A    between atoms: _374  and  _377
REMARK  163  A    between atoms: _377  and  _378
REMARK  164  A    between atoms: _385  and  _386
REMARK  165  A    between atoms: _391  and  _393
REMARK  166  A    between atoms: _393  and  _394
REMARK  167  A    between atoms: _393  and  _396
REMARK  168  A    between atoms: _396  and  _397
REMARK  169  A    between atoms: _397  and  _398
REMARK  170  A    between atoms: _398  and  _399
REMARK  171  A    between atoms: _408  and  _410
REMARK  172  A    between atoms: _410  and  _411
REMARK  173  A    between atoms: _410  and  _413
REMARK  174  A    between atoms: _413  and  _414
REMARK  175  A    between atoms: _417  and  _419
REMARK  176  A    between atoms: _419  and  _420
REMARK  177  A    between atoms: _419  and  _422
REMARK  178  A    between atoms: _422  and  _423
REMARK  179  A    between atoms: _423  and  _424
REMARK  180  A    between atoms: _429  and  _431
REMARK  181  A    between atoms: _431  and  _432
REMARK  182  A    between atoms: _431  and  _434
REMARK  183  A    between atoms: _434  and  _435
REMARK  184  A    between atoms: _441  and  _443
REMARK  185  A    between atoms: _443  and  _444
REMARK  186  A    between atoms: _443  and  _446
REMARK  187  A    between atoms: _449  and  _451
REMARK  188  A    between atoms: _451  and  _452
REMARK  189  A    between atoms: _451  and  _454
REMARK  190  A    between atoms: _454  and  _455
REMARK  191  A    between atoms: _458  and  _460
REMARK  192  A    between atoms: _460  and  _461
REMARK  193  A    between atoms: _460  and  _463
REMARK  194  A    between atoms: _463  and  _464
REMARK  195  A    between atoms: _467  and  _469
REMARK  196  A    between atoms: _469  and  _470
REMARK  197  A    between atoms: _469  and  _472
REMARK  198  A    between atoms: _475  and  _477
REMARK  199  A    between atoms: _477  and  _478
REMARK  200  A    between atoms: _477  and  _480
REMARK  201  A    between atoms: _480  and  _481
REMARK  202  A    between atoms: _484  and  _486
REMARK  203  A    between atoms: _486  and  _487
REMARK  204  A    between atoms: _486  and  _489
REMARK  205  A    between atoms: _489  and  _490
REMARK  206  A    between atoms: _490  and  _491
REMARK  207  A    between atoms: _491  and  _492
REMARK  208  A    between atoms: _501  and  _503
REMARK  209  A    between atoms: _503  and  _504
REMARK  210  A    between atoms: _503  and  _506
REMARK  211  A    between atoms: _506  and  _507
REMARK  212  A    between atoms: _510  and  _512
REMARK  213  A    between atoms: _512  and  _513
REMARK  214  A    between atoms: _512  and  _515
REMARK  215  A    between atoms: _518  and  _520
REMARK  216  A    between atoms: _520  and  _521
REMARK  217  A    between atoms: _523  and  _525
REMARK  218  A    between atoms: _525  and  _526
REMARK  219  A    between atoms: _525  and  _528
REMARK  220  A    between atoms: _528  and  _529
REMARK  221  A    between atoms: _529  and  _530
REMARK  222  A    between atoms: _530  and  _531
REMARK  223  A    between atoms: _540  and  _542
REMARK  224  A    between atoms: _542  and  _543
REMARK  225  A    between atoms: _542  and  _545
REMARK  226  A    between atoms: _545  and  _546
REMARK  227  A    between atoms: _546  and  _547
REMARK  228  A    between atoms: _547  and  _548
REMARK  229  A    between atoms: _557  and  _559
REMARK  230  A    between atoms: _559  and  _560
REMARK  231  A    between atoms: _559  and  _562
REMARK  232  A    between atoms: _565  and  _567
REMARK  233  A    between atoms: _567  and  _568
REMARK  234  A    between atoms: _570  and  _572
REMARK  235  A    between atoms: _572  and  _573
REMARK  236  A    between atoms: _572  and  _575
REMARK  237  A    between atoms: _575  and  _576
REMARK  238  A    between atoms: _576  and  _577
REMARK  239  A    between atoms: _577  and  _578
REMARK  240  A    between atoms: _587  and  _589
REMARK  241  A    between atoms: _589  and  _590
REMARK  242  A    between atoms: _589  and  _592
REMARK  243  A    between atoms: _595  and  _597
REMARK  244  A    between atoms: _597  and  _598
REMARK  245  A    between atoms: _597  and  _600
REMARK  246  A    between atoms: _600  and  _601
REMARK  247  A    between atoms: _606  and  _607
REMARK  248  A    between atoms: _609  and  _611
REMARK  249  A    between atoms: _611  and  _612
REMARK  250  A    between atoms: _611  and  _614
REMARK  251  A    between atoms: _614  and  _615
REMARK  252  A    between atoms: _620  and  _622
REMARK  253  A    between atoms: _622  and  _623
REMARK  254  A    between atoms: _622  and  _625
REMARK  255  A    between atoms: _628  and  _630
REMARK  256  A    between atoms: _630  and  _631
REMARK  257  A    between atoms: _630  and  _633
REMARK  258  A    between atoms: _633  and  _634
REMARK  259  A    between atoms: _634  and  _635
REMARK  260  A    between atoms: _635  and  _636
REMARK  261  A    between atoms: _636  and  _637
REMARK  262  A    between atoms: _641  and  _643
REMARK  263  A    between atoms: _643  and  _644
REMARK  264  A    between atoms: _643  and  _646
REMARK  265  A    between atoms: _646  and  _647
REMARK  266  A    between atoms: _653  and  _655
REMARK  267  A    between atoms: _655  and  _656
REMARK  268  A    between atoms: _655  and  _658
REMARK  269  A    between atoms: _658  and  _659
REMARK  270  A    between atoms: _665  and  _666
REMARK  271  A    between atoms: _671  and  _673
REMARK  272  A    between atoms: _673  and  _674
REMARK  273  A    between atoms: _673  and  _676
REMARK  274  A    between atoms: _676  and  _677
REMARK  275  A    between atoms: _677  and  _678
REMARK  276  A    between atoms: _678  and  _679
REMARK  277  A    between atoms: _688  and  _690
REMARK  278  A    between atoms: _690  and  _691
REMARK  279  A    between atoms: _690  and  _693
REMARK  280  A    between atoms: _693  and  _694
REMARK  281  A    between atoms: _697  and  _699
REMARK  282  A    between atoms: _699  and  _700
REMARK  283  A    between atoms: _699  and  _702
REMARK  284  A    between atoms: _702  and  _703
REMARK  285  A    between atoms: _706  and  _708
REMARK  286  A    between atoms: _708  and  _709
REMARK  287  A    between atoms: _708  and  _711
REMARK  288  A    between atoms: _711  and  _712
REMARK  289  A    between atoms: _715  and  _717
REMARK  290  A    between atoms: _717  and  _718
REMARK  291  A    between atoms: _717  and  _720
REMARK  292  A    between atoms: _723  and  _725
REMARK  293  A    between atoms: _725  and  _726
REMARK  294  A    between atoms: _725  and  _728
REMARK  295  A    between atoms: _728  and  _729
REMARK  296  A    between atoms: _729  and  _730
REMARK  297  A    between atoms: _730  and  _731
REMARK  298  A    between atoms: _731  and  _732
REMARK  299  A    between atoms: _736  and  _738
REMARK  300  A    between atoms: _738  and  _739
REMARK  301  A    between atoms: _738  and  _741
REMARK  302  A    between atoms: _741  and  _742
REMARK  303  A    between atoms: _742  and  _743
REMARK  304  A    between atoms: _743  and  _744
REMARK  305  A    between atoms: _753  and  _755
REMARK  306  A    between atoms: _755  and  _756
REMARK  307  A    between atoms: _755  and  _758
REMARK  308  A    between atoms: _758  and  _759
REMARK  309  A    between atoms: _762  and  _764
REMARK  310  A    between atoms: _764  and  _765
REMARK  311  A    between atoms: _764  and  _767
REMARK  312  A    between atoms: _767  and  _768
REMARK  313  A    between atoms: _768  and  _769
REMARK  314  A    between atoms: _772  and  _774
REMARK  315  A    between atoms: _774  and  _775
REMARK  316  A    between atoms: _774  and  _777
REMARK  317  A    between atoms: _777  and  _778
REMARK  318  A    between atoms: _788  and  _790
REMARK  319  A    between atoms: _790  and  _791
REMARK  320  A    between atoms: _790  and  _793
REMARK  321  A    between atoms: _793  and  _794
REMARK  322  A    between atoms: _797  and  _799
REMARK  323  A    between atoms: _799  and  _800
REMARK  324  A    between atoms: _799  and  _802
REMARK  325  A    between atoms: _802  and  _803
REMARK  326  A    between atoms: _806  and  _808
REMARK  327  A    between atoms: _808  and  _809
REMARK  328  A    between atoms: _811  and  _813
REMARK  329  A    between atoms: _813  and  _814
REMARK  330  A    between atoms: _813  and  _816
REMARK  331  A    between atoms: _816  and  _817
REMARK  332  A    between atoms: _820  and  _822
REMARK  333  A    between atoms: _822  and  _823
REMARK  334  A    between atoms: _822  and  _825
REMARK  335  A    between atoms: _825  and  _826
REMARK  336  A    between atoms: _826  and  _827
REMARK  337  A    between atoms: _827  and  _828
REMARK  338  A    between atoms: _828  and  _829
REMARK  339  A    between atoms: _834  and  _835
REMARK  340  A    between atoms: _840  and  _842
REMARK  341  A    between atoms: _842  and  _843
REMARK  342  A    between atoms: _842  and  _845
REMARK  343  A    between atoms: _848  and  _850
REMARK  344  A    between atoms: _850  and  _851
REMARK  345  A    between atoms: _854  and  _856
REMARK  346  A    between atoms: _856  and  _857
REMARK  347  A    between atoms: _856  and  _859
REMARK  348  A    between atoms: _859  and  _860
REMARK  349  A    between atoms: _860  and  _861
REMARK  350  A    between atoms: _864  and  _866
REMARK  351  A    between atoms: _866  and  _867
REMARK  352  A    between atoms: _866  and  _869
REMARK  353  A    between atoms: _872  and  _874
REMARK  354  A    between atoms: _874  and  _875
REMARK  355  A    between atoms: _874  and  _877
REMARK  356  A    between atoms: _877  and  _878
REMARK  357  A    between atoms: _878  and  _879
REMARK  358  A    between atoms: _879  and  _880
REMARK                            x       y       z     vdW  Elec       q    Type
REMARK                         _______ _______ _______ _____ _____    ______ ____
ROOT
ATOM      1  O   HOH     1     -16.908  10.515 -25.097  0.00  0.00    +0.000 OA
ENDROOT
TORSDOF 0
REMARK  Name = ../refined-set-2016/4x8o/4x8o_pocket.pdb
REMARK  358 active torsions:
REMARK  status: ('A' for Active; 'I' for Inactive)
REMARK    1  A    between atoms: _1  and  _3
REMARK    2  A    between atoms: _3  and  _4
REMARK    3  A    between atoms: _3  and  _6
REMARK    4  A    between atoms: _6  and  _7
REMARK    5  A    between atoms: _10  and  _12
REMARK    6  A    between atoms: _12  and  _13
REMARK    7  A    between atoms: _12  and  _15
REMARK    8  A    between atoms: _15  and  _16
REMARK    9  A    between atoms: _19  and  _21
REMARK   10  A    between atoms: _21  and  _22
REMARK   11  A    between atoms: _24  and  _26
REMARK   12  A    between atoms: _26  and  _27
REMARK   13  A    between atoms: _31  and  _32
REMARK   14  A    between atoms: _37  and  _39
REMARK   15  A    between atoms: _39  and  _40
REMARK   16  A    between atoms: _42  and  _44
REMARK   17  A    between atoms: _44  and  _45
REMARK   18  A    between atoms: _48  and  _50
REMARK   19  A    between atoms: _50  and  _51
REMARK   20  A    between atoms: _53  and  _55
REMARK   21  A    between atoms: _55  and  _56
REMARK   22  A    between atoms: _55  and  _58
REMARK   23  A    between atoms: _58  and  _59
REMARK   24  A    between atoms: _59  and  _60
REMARK   25  A    between atoms: _60  and  _61
REMARK   26  A    between atoms: _61  and  _62
REMARK   27  A    between atoms: _66  and  _68
REMARK   28  A    between atoms: _68  and  _69
REMARK   29  A    between atoms: _71  and  _73
REMARK   30  A    between atoms: _73  and  _74
REMARK   31  A    between atoms: _73  and  _76
REMARK   32  A    between atoms: _76  and  _77
REMARK   33  A    between atoms: _80  and  _82
REMARK   34  A    between atoms: _82  and  _83
REMARK   35  A    between atoms: _82  and  _85
REMARK   36  A    between atoms: _85  and  _86
REMARK   37  A    between atoms: _86  and  _87
REMARK   38  A    between atoms: _92  and  _94
REMARK   39  A    between atoms: _94  and  _95
REMARK   40  A    between atoms: _98  and  _100
REMARK   41  A    between atoms: _100  and  _101
REMARK   42  A    between atoms: _100  and  _103
REMARK   43  A    between atoms: _103  and  _104
REMARK   44  A    between atoms: _104  and  _105
REMARK   45  A    between atoms: _110  and  _112
REMARK   46  A    between atoms: _112  and  _113
REMARK   47  A    between atoms: _112  and  _115
REMARK   48  A    between atoms: _115  and  _116
REMARK   49  A    between atoms: _122  and  _124
REMARK   50  A    between atoms: _124  and  _125
REMARK   51  A    between atoms: _124  and  _127
REMARK   52  A    between atoms: _127  and  _128
REMARK   53  A    between atoms: _128  and  _129
REMARK   54  A    between atoms: _134  and  _136
REMARK   55  A    between atoms: _136  and  _137
REMARK   56  A    between atoms: _136  and  _139
REMARK   57  A    between atoms: _139  and  _140
REMARK   58  A    between atoms: _142  and  _144
REMARK   59  A    between atoms: _144  and  _145
REMARK   60  A    between atoms: _144  and  _147
REMARK   61  A    between atoms: _147  and  _148
REMARK   62  A    between atoms: _151  and  _153
REMARK   63  A    between atoms: _153  and  _154
REMARK   64  A    between atoms: _156  and  _158
REMARK   65  A    between atoms: _158  and  _159
REMARK   66  A    between atoms: _158  and  _161
REMARK   67  A    between atoms: _161  and  _162
REMARK   68  A    between atoms: _165  and  _167
REMARK   69  A    between atoms: _167  and  _168
REMARK   70  A    between atoms: _167  and  _170
REMARK   71  A    between atoms: _170  and  _171
REMARK   72  A    between atoms: _171  and  _172
REMARK   73  A    between atoms: _174  and  _176
REMARK   74  A    between atoms: _176  and  _177
REMARK   75  A    between atoms: _176  and  _179
REMARK   76  A    between atoms: _179  and  _180
REMARK   77  A    between atoms: _183  and  _185
REMARK   78  A    between atoms: _185  and  _186
REMARK   79  A    between atoms: _185  and  _188
REMARK   80  A    between atoms: _188  and  _189
REMARK   81  A    between atoms: _189  and  _190
REMARK   82  A    between atoms: _190  and  _191
REMARK   83  A    between atoms: _200  and  _202
REMARK   84  A    between atoms: _202  and  _203
REMARK   85  A    between atoms: _206  and  _208
REMARK   86  A    between atoms: _208  and  _209
REMARK   87  A    between atoms: _208  and  _211
REMARK   88  A    between atoms: _211  and  _212
REMARK   89  A    between atoms: _212  and  _213
REMARK   90  A    between atoms: _213  and  _214
REMARK   91  A    between atoms: _214  and  _215
REMARK   92  A    between atoms: _219  and  _221
REMARK   93  A    between atoms: _221  and  _222
REMARK   94  A    between atoms: _221  and  _224
REMARK   95  A    between atoms: _224  and  _225
REMARK   96  A    between atoms: _228  and  _230
REMARK   97  A    between atoms: _230  and  _231
REMARK   98  A    between atoms: _230  and  _233
REMARK   99  A    between atoms: _233  and  _234
REMARK  100  A    between atoms: _237  and  _239
REMARK  101  A    between atoms: _239  and  _240
REMARK  102  A    between atoms: _239  and  _242
REMARK  103  A    between atoms: _242  and  _243
REMARK  104  A    between atoms: _243  and  _244
REMARK  105  A    between atoms: _246  and  _248
REMARK  106  A    between atoms: _248  and  _249
REMARK  107  A    between atoms: _248  and  _251
REMARK  108  A    between atoms: _251  and  _252
REMARK  109  A    between atoms: _255  and  _257
REMARK  110  A    between atoms: _257  and  _258
REMARK  111  A    between atoms: _261  and  _263
REMARK  112  A    between atoms: _263  and  _264
REMARK  113  A    between atoms: _266  and  _268
REMARK  114  A    between atoms: _268  and  _269
REMARK  115  A    between atoms: _268  and  _271
REMARK  116  A    between atoms: _271  and  _272
REMARK  117  A    between atoms: _272  and  _273
REMARK  118  A    between atoms: _273  and  _274
REMARK  119  A    between atoms: _274  and  _275
REMARK  120  A    between atoms: _279  and  _281
REMARK  121  A    between atoms: _281  and  _282
REMARK  122  A    between atoms: _281  and  _284
REMARK  123  A    between atoms: _284  and  _285
REMARK  124  A    between atoms: _288  and  _290
REMARK  125  A    between atoms: _290  and  _291
REMARK  126  A    between atoms: _290  and  _293
REMARK  127  A    between atoms: _296  and  _298
REMARK  128  A    between atoms: _298  and  _299
REMARK  129  A    between atoms: _298  and  _301
REMARK  130  A    between atoms: _301  and  _302
REMARK  131  A    between atoms: _305  and  _307
REMARK  132  A    between atoms: _307  and  _308
REMARK  133  A    between atoms: _307  and  _310
REMARK  134  A    between atoms: _310  and  _311
REMARK  135  A    between atoms: _314  and  _316
REMARK  136  A    between atoms: _316  and  _317
REMARK  137  A    between atoms: _316  and  _319
REMARK  138  A    between atoms: _319  and  _320
REMARK  139  A    between atoms: _320  and  _321
REMARK  140  A    between atoms: _324  and  _326
REMARK  141  A    between atoms: _326  and  _327
REMARK  142  A    between atoms: _326  and  _329
REMARK  143  A    between atoms: _329  and  _330
REMARK  144  A    between atoms: _333  and  _335
REMARK  145  A    between atoms: _335  and  _336
REMARK  146  A    between atoms: _335  and  _338
REMARK  147  A    between atoms: _341  and  _343
REMARK  148  A    between atoms: _343  and  _344
REMARK  149  A    between atoms: _343  and  _346
REMARK  150  A    between atoms: _346  and  _347
REMARK  151  A    between atoms: _350  and  _352
REMARK  152  A    between atoms: _352  and  _353
REMARK  153  A    between atoms: _352  and  _355
REMARK  154  A    between atoms: _358  and  _360
REMARK  155  A    between atoms: _360  and  _361
REMARK  156  A    between atoms: _360  and  _363
REMARK  157  A    between atoms: _363  and  _364
REMARK  158  A    between atoms: _367  and  _369
REMARK  159  A    between atoms: _369  and  _370
REMARK  160  A    between atoms: _372  and  _374
REMARK  161  A    between atoms: _374  and  _375
REMARK  162  A    between atoms: _374  and  _377
REMARK  163  A    between atoms: _377  and  _378
REMARK  164  A    between atoms: _385  and  _386
REMARK  165  A    between atoms: _391  and  _393
REMARK  166  A    between atoms: _393  and  _394
REMARK  167  A    between atoms: _393  and  _396
REMARK  168  A    between atoms: _396  and  _397
REMARK  169  A    between atoms: _397  and  _398
REMARK  170  A    between atoms: _398  and  _399
REMARK  171  A    between atoms: _408  and  _410
REMARK  172  A    between atoms: _410  and  _411
REMARK  173  A    between atoms: _410  and  _413
REMARK  174  A    between atoms: _413  and  _414
REMARK  175  A    between atoms: _417  and  _419
REMARK  176  A    between atoms: _419  and  _420
REMARK  177  A    between atoms: _419  and  _422
REMARK  178  A    between atoms: _422  and  _423
REMARK  179  A    between atoms: _423  and  _424
REMARK  180  A    between atoms: _429  and  _431
REMARK  181  A    between atoms: _431  and  _432
REMARK  182  A    between atoms: _431  and  _434
REMARK  183  A    between atoms: _434  and  _435
REMARK  184  A    between atoms: _441  and  _443
REMARK  185  A    between atoms: _443  and  _444
REMARK  186  A    between atoms: _443  and  _446
REMARK  187  A    between atoms: _449  and  _451
REMARK  188  A    between atoms: _451  and  _452
REMARK  189  A    between atoms: _451  and  _454
REMARK  190  A    between atoms: _454  and  _455
REMARK  191  A    between atoms: _458  and  _460
REMARK  192  A    between atoms: _460  and  _461
REMARK  193  A    between atoms: _460  and  _463
REMARK  194  A    between atoms: _463  and  _464
REMARK  195  A    between atoms: _467  and  _469
REMARK  196  A    between atoms: _469  and  _470
REMARK  197  A    between atoms: _469  and  _472
REMARK  198  A    between atoms: _475  and  _477
REMARK  199  A    between atoms: _477  and  _478
REMARK  200  A    between atoms: _477  and  _480
REMARK  201  A    between atoms: _480  and  _481
REMARK  202  A    between atoms: _484  and  _486
REMARK  203  A    between atoms: _486  and  _487
REMARK  204  A    between atoms: _486  and  _489
REMARK  205  A    between atoms: _489  and  _490
REMARK  206  A    between atoms: _490  and  _491
REMARK  207  A    between atoms: _491  and  _492
REMARK  208  A    between atoms: _501  and  _503
REMARK  209  A    between atoms: _503  and  _504
REMARK  210  A    between atoms: _503  and  _506
REMARK  211  A    between atoms: _506  and  _507
REMARK  212  A    between atoms: _510  and  _512
REMARK  213  A    between atoms: _512  and  _513
REMARK  214  A    between atoms: _512  and  _515
REMARK  215  A    between atoms: _518  and  _520
REMARK  216  A    between atoms: _520  and  _521
REMARK  217  A    between atoms: _523  and  _525
REMARK  218  A    between atoms: _525  and  _526
REMARK  219  A    between atoms: _525  and  _528
REMARK  220  A    between atoms: _528  and  _529
REMARK  221  A    between atoms: _529  and  _530
REMARK  222  A    between atoms: _530  and  _531
REMARK  223  A    between atoms: _540  and  _542
REMARK  224  A    between atoms: _542  and  _543
REMARK  225  A    between atoms: _542  and  _545
REMARK  226  A    between atoms: _545  and  _546
REMARK  227  A    between atoms: _546  and  _547
REMARK  228  A    between atoms: _547  and  _548
REMARK  229  A    between atoms: _557  and  _559
REMARK  230  A    between atoms: _559  and  _560
REMARK  231  A    between atoms: _559  and  _562
REMARK  232  A    between atoms: _565  and  _567
REMARK  233  A    between atoms: _567  and  _568
REMARK  234  A    between atoms: _570  and  _572
REMARK  235  A    between atoms: _572  and  _573
REMARK  236  A    between atoms: _572  and  _575
REMARK  237  A    between atoms: _575  and  _576
REMARK  238  A    between atoms: _576  and  _577
REMARK  239  A    between atoms: _577  and  _578
REMARK  240  A    between atoms: _587  and  _589
REMARK  241  A    between atoms: _589  and  _590
REMARK  242  A    between atoms: _589  and  _592
REMARK  243  A    between atoms: _595  and  _597
REMARK  244  A    between atoms: _597  and  _598
REMARK  245  A    between atoms: _597  and  _600
REMARK  246  A    between atoms: _600  and  _601
REMARK  247  A    between atoms: _606  and  _607
REMARK  248  A    between atoms: _609  and  _611
REMARK  249  A    between atoms: _611  and  _612
REMARK  250  A    between atoms: _611  and  _614
REMARK  251  A    between atoms: _614  and  _615
REMARK  252  A    between atoms: _620  and  _622
REMARK  253  A    between atoms: _622  and  _623
REMARK  254  A    between atoms: _622  and  _625
REMARK  255  A    between atoms: _628  and  _630
REMARK  256  A    between atoms: _630  and  _631
REMARK  257  A    between atoms: _630  and  _633
REMARK  258  A    between atoms: _633  and  _634
REMARK  259  A    between atoms: _634  and  _635
REMARK  260  A    between atoms: _635  and  _636
REMARK  261  A    between atoms: _636  and  _637
REMARK  262  A    between atoms: _641  and  _643
REMARK  263  A    between atoms: _643  and  _644
REMARK  264  A    between atoms: _643  and  _646
REMARK  265  A    between atoms: _646  and  _647
REMARK  266  A    between atoms: _653  and  _655
REMARK  267  A    between atoms: _655  and  _656
REMARK  268  A    between atoms: _655  and  _658
REMARK  269  A    between atoms: _658  and  _659
REMARK  270  A    between atoms: _665  and  _666
REMARK  271  A    between atoms: _671  and  _673
REMARK  272  A    between atoms: _673  and  _674
REMARK  273  A    between atoms: _673  and  _676
REMARK  274  A    between atoms: _676  and  _677
REMARK  275  A    between atoms: _677  and  _678
REMARK  276  A    between atoms: _678  and  _679
REMARK  277  A    between atoms: _688  and  _690
REMARK  278  A    between atoms: _690  and  _691
REMARK  279  A    between atoms: _690  and  _693
REMARK  280  A    between atoms: _693  and  _694
REMARK  281  A    between atoms: _697  and  _699
REMARK  282  A    between atoms: _699  and  _700
REMARK  283  A    between atoms: _699  and  _702
REMARK  284  A    between atoms: _702  and  _703
REMARK  285  A    between atoms: _706  and  _708
REMARK  286  A    between atoms: _708  and  _709
REMARK  287  A    between atoms: _708  and  _711
REMARK  288  A    between atoms: _711  and  _712
REMARK  289  A    between atoms: _715  and  _717
REMARK  290  A    between atoms: _717  and  _718
REMARK  291  A    between atoms: _717  and  _720
REMARK  292  A    between atoms: _723  and  _725
REMARK  293  A    between atoms: _725  and  _726
REMARK  294  A    between atoms: _725  and  _728
REMARK  295  A    between atoms: _728  and  _729
REMARK  296  A    between atoms: _729  and  _730
REMARK  297  A    between atoms: _730  and  _731
REMARK  298  A    between atoms: _731  and  _732
REMARK  299  A    between atoms: _736  and  _738
REMARK  300  A    between atoms: _738  and  _739
REMARK  301  A    between atoms: _738  and  _741
REMARK  302  A    between atoms: _741  and  _742
REMARK  303  A    between atoms: _742  and  _743
REMARK  304  A    between atoms: _743  and  _744
REMARK  305  A    between atoms: _753  and  _755
REMARK  306  A    between atoms: _755  and  _756
REMARK  307  A    between atoms: _755  and  _758
REMARK  308  A    between atoms: _758  and  _759
REMARK  309  A    between atoms: _762  and  _764
REMARK  310  A    between atoms: _764  and  _765
REMARK  311  A    between atoms: _764  and  _767
REMARK  312  A    between atoms: _767  and  _768
REMARK  313  A    between atoms: _768  and  _769
REMARK  314  A    between atoms: _772  and  _774
REMARK  315  A    between atoms: _774  and  _775
REMARK  316  A    between atoms: _774  and  _777
REMARK  317  A    between atoms: _777  and  _778
REMARK  318  A    between atoms: _788  and  _790
REMARK  319  A    between atoms: _790  and  _791
REMARK  320  A    between atoms: _790  and  _793
REMARK  321  A    between atoms: _793  and  _794
REMARK  322  A    between atoms: _797  and  _799
REMARK  323  A    between atoms: _799  and  _800
REMARK  324  A    between atoms: _799  and  _802
REMARK  325  A    between atoms: _802  and  _803
REMARK  326  A    between atoms: _806  and  _808
REMARK  327  A    between atoms: _808  and  _809
REMARK  328  A    between atoms: _811  and  _813
REMARK  329  A    between atoms: _813  and  _814
REMARK  330  A    between atoms: _813  and  _816
REMARK  331  A    between atoms: _816  and  _817
REMARK  332  A    between atoms: _820  and  _822
REMARK  333  A    between atoms: _822  and  _823
REMARK  334  A    between atoms: _822  and  _825
REMARK  335  A    between atoms: _825  and  _826
REMARK  336  A    between atoms: _826  and  _827
REMARK  337  A    between atoms: _827  and  _828
REMARK  338  A    between atoms: _828  and  _829
REMARK  339  A    between atoms: _834  and  _835
REMARK  340  A    between atoms: _840  and  _842
REMARK  341  A    between atoms: _842  and  _843
REMARK  342  A    between atoms: _842  and  _845
REMARK  343  A    between atoms: _848  and  _850
REMARK  344  A    between atoms: _850  and  _851
REMARK  345  A    between atoms: _854  and  _856
REMARK  346  A    between atoms: _856  and  _857
REMARK  347  A    between atoms: _856  and  _859
REMARK  348  A    between atoms: _859  and  _860
REMARK  349  A    between atoms: _860  and  _861
REMARK  350  A    between atoms: _864  and  _866
REMARK  351  A    between atoms: _866  and  _867
REMARK  352  A    between atoms: _866  and  _869
REMARK  353  A    between atoms: _872  and  _874
REMARK  354  A    between atoms: _874  and  _875
REMARK  355  A    between atoms: _874  and  _877
REMARK  356  A    between atoms: _877  and  _878
REMARK  357  A    between atoms: _878  and  _879
REMARK  358  A    between atoms: _879  and  _880
REMARK                            x       y       z     vdW  Elec       q    Type
REMARK                         _______ _______ _______ _____ _____    ______ ____
ROOT
ATOM      1  O   HOH     1     -19.282   1.245 -30.820  0.00  0.00    +0.000 OA
ENDROOT
TORSDOF 0
REMARK  Name = ../refined-set-2016/4x8o/4x8o_pocket.pdb
REMARK  358 active torsions:
REMARK  status: ('A' for Active; 'I' for Inactive)
REMARK    1  A    between atoms: _1  and  _3
REMARK    2  A    between atoms: _3  and  _4
REMARK    3  A    between atoms: _3  and  _6
REMARK    4  A    between atoms: _6  and  _7
REMARK    5  A    between atoms: _10  and  _12
REMARK    6  A    between atoms: _12  and  _13
REMARK    7  A    between atoms: _12  and  _15
REMARK    8  A    between atoms: _15  and  _16
REMARK    9  A    between atoms: _19  and  _21
REMARK   10  A    between atoms: _21  and  _22
REMARK   11  A    between atoms: _24  and  _26
REMARK   12  A    between atoms: _26  and  _27
REMARK   13  A    between atoms: _31  and  _32
REMARK   14  A    between atoms: _37  and  _39
REMARK   15  A    between atoms: _39  and  _40
REMARK   16  A    between atoms: _42  and  _44
REMARK   17  A    between atoms: _44  and  _45
REMARK   18  A    between atoms: _48  and  _50
REMARK   19  A    between atoms: _50  and  _51
REMARK   20  A    between atoms: _53  and  _55
REMARK   21  A    between atoms: _55  and  _56
REMARK   22  A    between atoms: _55  and  _58
REMARK   23  A    between atoms: _58  and  _59
REMARK   24  A    between atoms: _59  and  _60
REMARK   25  A    between atoms: _60  and  _61
REMARK   26  A    between atoms: _61  and  _62
REMARK   27  A    between atoms: _66  and  _68
REMARK   28  A    between atoms: _68  and  _69
REMARK   29  A    between atoms: _71  and  _73
REMARK   30  A    between atoms: _73  and  _74
REMARK   31  A    between atoms: _73  and  _76
REMARK   32  A    between atoms: _76  and  _77
REMARK   33  A    between atoms: _80  and  _82
REMARK   34  A    between atoms: _82  and  _83
REMARK   35  A    between atoms: _82  and  _85
REMARK   36  A    between atoms: _85  and  _86
REMARK   37  A    between atoms: _86  and  _87
REMARK   38  A    between atoms: _92  and  _94
REMARK   39  A    between atoms: _94  and  _95
REMARK   40  A    between atoms: _98  and  _100
REMARK   41  A    between atoms: _100  and  _101
REMARK   42  A    between atoms: _100  and  _103
REMARK   43  A    between atoms: _103  and  _104
REMARK   44  A    between atoms: _104  and  _105
REMARK   45  A    between atoms: _110  and  _112
REMARK   46  A    between atoms: _112  and  _113
REMARK   47  A    between atoms: _112  and  _115
REMARK   48  A    between atoms: _115  and  _116
REMARK   49  A    between atoms: _122  and  _124
REMARK   50  A    between atoms: _124  and  _125
REMARK   51  A    between atoms: _124  and  _127
REMARK   52  A    between atoms: _127  and  _128
REMARK   53  A    between atoms: _128  and  _129
REMARK   54  A    between atoms: _134  and  _136
REMARK   55  A    between atoms: _136  and  _137
REMARK   56  A    between atoms: _136  and  _139
REMARK   57  A    between atoms: _139  and  _140
REMARK   58  A    between atoms: _142  and  _144
REMARK   59  A    between atoms: _144  and  _145
REMARK   60  A    between atoms: _144  and  _147
REMARK   61  A    between atoms: _147  and  _148
REMARK   62  A    between atoms: _151  and  _153
REMARK   63  A    between atoms: _153  and  _154
REMARK   64  A    between atoms: _156  and  _158
REMARK   65  A    between atoms: _158  and  _159
REMARK   66  A    between atoms: _158  and  _161
REMARK   67  A    between atoms: _161  and  _162
REMARK   68  A    between atoms: _165  and  _167
REMARK   69  A    between atoms: _167  and  _168
REMARK   70  A    between atoms: _167  and  _170
REMARK   71  A    between atoms: _170  and  _171
REMARK   72  A    between atoms: _171  and  _172
REMARK   73  A    between atoms: _174  and  _176
REMARK   74  A    between atoms: _176  and  _177
REMARK   75  A    between atoms: _176  and  _179
REMARK   76  A    between atoms: _179  and  _180
REMARK   77  A    between atoms: _183  and  _185
REMARK   78  A    between atoms: _185  and  _186
REMARK   79  A    between atoms: _185  and  _188
REMARK   80  A    between atoms: _188  and  _189
REMARK   81  A    between atoms: _189  and  _190
REMARK   82  A    between atoms: _190  and  _191
REMARK   83  A    between atoms: _200  and  _202
REMARK   84  A    between atoms: _202  and  _203
REMARK   85  A    between atoms: _206  and  _208
REMARK   86  A    between atoms: _208  and  _209
REMARK   87  A    between atoms: _208  and  _211
REMARK   88  A    between atoms: _211  and  _212
REMARK   89  A    between atoms: _212  and  _213
REMARK   90  A    between atoms: _213  and  _214
REMARK   91  A    between atoms: _214  and  _215
REMARK   92  A    between atoms: _219  and  _221
REMARK   93  A    between atoms: _221  and  _222
REMARK   94  A    between atoms: _221  and  _224
REMARK   95  A    between atoms: _224  and  _225
REMARK   96  A    between atoms: _228  and  _230
REMARK   97  A    between atoms: _230  and  _231
REMARK   98  A    between atoms: _230  and  _233
REMARK   99  A    between atoms: _233  and  _234
REMARK  100  A    between atoms: _237  and  _239
REMARK  101  A    between atoms: _239  and  _240
REMARK  102  A    between atoms: _239  and  _242
REMARK  103  A    between atoms: _242  and  _243
REMARK  104  A    between atoms: _243  and  _244
REMARK  105  A    between atoms: _246  and  _248
REMARK  106  A    between atoms: _248  and  _249
REMARK  107  A    between atoms: _248  and  _251
REMARK  108  A    between atoms: _251  and  _252
REMARK  109  A    between atoms: _255  and  _257
REMARK  110  A    between atoms: _257  and  _258
REMARK  111  A    between atoms: _261  and  _263
REMARK  112  A    between atoms: _263  and  _264
REMARK  113  A    between atoms: _266  and  _268
REMARK  114  A    between atoms: _268  and  _269
REMARK  115  A    between atoms: _268  and  _271
REMARK  116  A    between atoms: _271  and  _272
REMARK  117  A    between atoms: _272  and  _273
REMARK  118  A    between atoms: _273  and  _274
REMARK  119  A    between atoms: _274  and  _275
REMARK  120  A    between atoms: _279  and  _281
REMARK  121  A    between atoms: _281  and  _282
REMARK  122  A    between atoms: _281  and  _284
REMARK  123  A    between atoms: _284  and  _285
REMARK  124  A    between atoms: _288  and  _290
REMARK  125  A    between atoms: _290  and  _291
REMARK  126  A    between atoms: _290  and  _293
REMARK  127  A    between atoms: _296  and  _298
REMARK  128  A    between atoms: _298  and  _299
REMARK  129  A    between atoms: _298  and  _301
REMARK  130  A    between atoms: _301  and  _302
REMARK  131  A    between atoms: _305  and  _307
REMARK  132  A    between atoms: _307  and  _308
REMARK  133  A    between atoms: _307  and  _310
REMARK  134  A    between atoms: _310  and  _311
REMARK  135  A    between atoms: _314  and  _316
REMARK  136  A    between atoms: _316  and  _317
REMARK  137  A    between atoms: _316  and  _319
REMARK  138  A    between atoms: _319  and  _320
REMARK  139  A    between atoms: _320  and  _321
REMARK  140  A    between atoms: _324  and  _326
REMARK  141  A    between atoms: _326  and  _327
REMARK  142  A    between atoms: _326  and  _329
REMARK  143  A    between atoms: _329  and  _330
REMARK  144  A    between atoms: _333  and  _335
REMARK  145  A    between atoms: _335  and  _336
REMARK  146  A    between atoms: _335  and  _338
REMARK  147  A    between atoms: _341  and  _343
REMARK  148  A    between atoms: _343  and  _344
REMARK  149  A    between atoms: _343  and  _346
REMARK  150  A    between atoms: _346  and  _347
REMARK  151  A    between atoms: _350  and  _352
REMARK  152  A    between atoms: _352  and  _353
REMARK  153  A    between atoms: _352  and  _355
REMARK  154  A    between atoms: _358  and  _360
REMARK  155  A    between atoms: _360  and  _361
REMARK  156  A    between atoms: _360  and  _363
REMARK  157  A    between atoms: _363  and  _364
REMARK  158  A    between atoms: _367  and  _369
REMARK  159  A    between atoms: _369  and  _370
REMARK  160  A    between atoms: _372  and  _374
REMARK  161  A    between atoms: _374  and  _375
REMARK  162  A    between atoms: _374  and  _377
REMARK  163  A    between atoms: _377  and  _378
REMARK  164  A    between atoms: _385  and  _386
REMARK  165  A    between atoms: _391  and  _393
REMARK  166  A    between atoms: _393  and  _394
REMARK  167  A    between atoms: _393  and  _396
REMARK  168  A    between atoms: _396  and  _397
REMARK  169  A    between atoms: _397  and  _398
REMARK  170  A    between atoms: _398  and  _399
REMARK  171  A    between atoms: _408  and  _410
REMARK  172  A    between atoms: _410  and  _411
REMARK  173  A    between atoms: _410  and  _413
REMARK  174  A    between atoms: _413  and  _414
REMARK  175  A    between atoms: _417  and  _419
REMARK  176  A    between atoms: _419  and  _420
REMARK  177  A    between atoms: _419  and  _422
REMARK  178  A    between atoms: _422  and  _423
REMARK  179  A    between atoms: _423  and  _424
REMARK  180  A    between atoms: _429  and  _431
REMARK  181  A    between atoms: _431  and  _432
REMARK  182  A    between atoms: _431  and  _434
REMARK  183  A    between atoms: _434  and  _435
REMARK  184  A    between atoms: _441  and  _443
REMARK  185  A    between atoms: _443  and  _444
REMARK  186  A    between atoms: _443  and  _446
REMARK  187  A    between atoms: _449  and  _451
REMARK  188  A    between atoms: _451  and  _452
REMARK  189  A    between atoms: _451  and  _454
REMARK  190  A    between atoms: _454  and  _455
REMARK  191  A    between atoms: _458  and  _460
REMARK  192  A    between atoms: _460  and  _461
REMARK  193  A    between atoms: _460  and  _463
REMARK  194  A    between atoms: _463  and  _464
REMARK  195  A    between atoms: _467  and  _469
REMARK  196  A    between atoms: _469  and  _470
REMARK  197  A    between atoms: _469  and  _472
REMARK  198  A    between atoms: _475  and  _477
REMARK  199  A    between atoms: _477  and  _478
REMARK  200  A    between atoms: _477  and  _480
REMARK  201  A    between atoms: _480  and  _481
REMARK  202  A    between atoms: _484  and  _486
REMARK  203  A    between atoms: _486  and  _487
REMARK  204  A    between atoms: _486  and  _489
REMARK  205  A    between atoms: _489  and  _490
REMARK  206  A    between atoms: _490  and  _491
REMARK  207  A    between atoms: _491  and  _492
REMARK  208  A    between atoms: _501  and  _503
REMARK  209  A    between atoms: _503  and  _504
REMARK  210  A    between atoms: _503  and  _506
REMARK  211  A    between atoms: _506  and  _507
REMARK  212  A    between atoms: _510  and  _512
REMARK  213  A    between atoms: _512  and  _513
REMARK  214  A    between atoms: _512  and  _515
REMARK  215  A    between atoms: _518  and  _520
REMARK  216  A    between atoms: _520  and  _521
REMARK  217  A    between atoms: _523  and  _525
REMARK  218  A    between atoms: _525  and  _526
REMARK  219  A    between atoms: _525  and  _528
REMARK  220  A    between atoms: _528  and  _529
REMARK  221  A    between atoms: _529  and  _530
REMARK  222  A    between atoms: _530  and  _531
REMARK  223  A    between atoms: _540  and  _542
REMARK  224  A    between atoms: _542  and  _543
REMARK  225  A    between atoms: _542  and  _545
REMARK  226  A    between atoms: _545  and  _546
REMARK  227  A    between atoms: _546  and  _547
REMARK  228  A    between atoms: _547  and  _548
REMARK  229  A    between atoms: _557  and  _559
REMARK  230  A    between atoms: _559  and  _560
REMARK  231  A    between atoms: _559  and  _562
REMARK  232  A    between atoms: _565  and  _567
REMARK  233  A    between atoms: _567  and  _568
REMARK  234  A    between atoms: _570  and  _572
REMARK  235  A    between atoms: _572  and  _573
REMARK  236  A    between atoms: _572  and  _575
REMARK  237  A    between atoms: _575  and  _576
REMARK  238  A    between atoms: _576  and  _577
REMARK  239  A    between atoms: _577  and  _578
REMARK  240  A    between atoms: _587  and  _589
REMARK  241  A    between atoms: _589  and  _590
REMARK  242  A    between atoms: _589  and  _592
REMARK  243  A    between atoms: _595  and  _597
REMARK  244  A    between atoms: _597  and  _598
REMARK  245  A    between atoms: _597  and  _600
REMARK  246  A    between atoms: _600  and  _601
REMARK  247  A    between atoms: _606  and  _607
REMARK  248  A    between atoms: _609  and  _611
REMARK  249  A    between atoms: _611  and  _612
REMARK  250  A    between atoms: _611  and  _614
REMARK  251  A    between atoms: _614  and  _615
REMARK  252  A    between atoms: _620  and  _622
REMARK  253  A    between atoms: _622  and  _623
REMARK  254  A    between atoms: _622  and  _625
REMARK  255  A    between atoms: _628  and  _630
REMARK  256  A    between atoms: _630  and  _631
REMARK  257  A    between atoms: _630  and  _633
REMARK  258  A    between atoms: _633  and  _634
REMARK  259  A    between atoms: _634  and  _635
REMARK  260  A    between atoms: _635  and  _636
REMARK  261  A    between atoms: _636  and  _637
REMARK  262  A    between atoms: _641  and  _643
REMARK  263  A    between atoms: _643  and  _644
REMARK  264  A    between atoms: _643  and  _646
REMARK  265  A    between atoms: _646  and  _647
REMARK  266  A    between atoms: _653  and  _655
REMARK  267  A    between atoms: _655  and  _656
REMARK  268  A    between atoms: _655  and  _658
REMARK  269  A    between atoms: _658  and  _659
REMARK  270  A    between atoms: _665  and  _666
REMARK  271  A    between atoms: _671  and  _673
REMARK  272  A    between atoms: _673  and  _674
REMARK  273  A    between atoms: _673  and  _676
REMARK  274  A    between atoms: _676  and  _677
REMARK  275  A    between atoms: _677  and  _678
REMARK  276  A    between atoms: _678  and  _679
REMARK  277  A    between atoms: _688  and  _690
REMARK  278  A    between atoms: _690  and  _691
REMARK  279  A    between atoms: _690  and  _693
REMARK  280  A    between atoms: _693  and  _694
REMARK  281  A    between atoms: _697  and  _699
REMARK  282  A    between atoms: _699  and  _700
REMARK  283  A    between atoms: _699  and  _702
REMARK  284  A    between atoms: _702  and  _703
REMARK  285  A    between atoms: _706  and  _708
REMARK  286  A    between atoms: _708  and  _709
REMARK  287  A    between atoms: _708  and  _711
REMARK  288  A    between atoms: _711  and  _712
REMARK  289  A    between atoms: _715  and  _717
REMARK  290  A    between atoms: _717  and  _718
REMARK  291  A    between atoms: _717  and  _720
REMARK  292  A    between atoms: _723  and  _725
REMARK  293  A    between atoms: _725  and  _726
REMARK  294  A    between atoms: _725  and  _728
REMARK  295  A    between atoms: _728  and  _729
REMARK  296  A    between atoms: _729  and  _730
REMARK  297  A    between atoms: _730  and  _731
REMARK  298  A    between atoms: _731  and  _732
REMARK  299  A    between atoms: _736  and  _738
REMARK  300  A    between atoms: _738  and  _739
REMARK  301  A    between atoms: _738  and  _741
REMARK  302  A    between atoms: _741  and  _742
REMARK  303  A    between atoms: _742  and  _743
REMARK  304  A    between atoms: _743  and  _744
REMARK  305  A    between atoms: _753  and  _755
REMARK  306  A    between atoms: _755  and  _756
REMARK  307  A    between atoms: _755  and  _758
REMARK  308  A    between atoms: _758  and  _759
REMARK  309  A    between atoms: _762  and  _764
REMARK  310  A    between atoms: _764  and  _765
REMARK  311  A    between atoms: _764  and  _767
REMARK  312  A    between atoms: _767  and  _768
REMARK  313  A    between atoms: _768  and  _769
REMARK  314  A    between atoms: _772  and  _774
REMARK  315  A    between atoms: _774  and  _775
REMARK  316  A    between atoms: _774  and  _777
REMARK  317  A    between atoms: _777  and  _778
REMARK  318  A    between atoms: _788  and  _790
REMARK  319  A    between atoms: _790  and  _791
REMARK  320  A    between atoms: _790  and  _793
REMARK  321  A    between atoms: _793  and  _794
REMARK  322  A    between atoms: _797  and  _799
REMARK  323  A    between atoms: _799  and  _800
REMARK  324  A    between atoms: _799  and  _802
REMARK  325  A    between atoms: _802  and  _803
REMARK  326  A    between atoms: _806  and  _808
REMARK  327  A    between atoms: _808  and  _809
REMARK  328  A    between atoms: _811  and  _813
REMARK  329  A    between atoms: _813  and  _814
REMARK  330  A    between atoms: _813  and  _816
REMARK  331  A    between atoms: _816  and  _817
REMARK  332  A    between atoms: _820  and  _822
REMARK  333  A    between atoms: _822  and  _823
REMARK  334  A    between atoms: _822  and  _825
REMARK  335  A    between atoms: _825  and  _826
REMARK  336  A    between atoms: _826  and  _827
REMARK  337  A    between atoms: _827  and  _828
REMARK  338  A    between atoms: _828  and  _829
REMARK  339  A    between atoms: _834  and  _835
REMARK  340  A    between atoms: _840  and  _842
REMARK  341  A    between atoms: _842  and  _843
REMARK  342  A    between atoms: _842  and  _845
REMARK  343  A    between atoms: _848  and  _850
REMARK  344  A    between atoms: _850  and  _851
REMARK  345  A    between atoms: _854  and  _856
REMARK  346  A    between atoms: _856  and  _857
REMARK  347  A    between atoms: _856  and  _859
REMARK  348  A    between atoms: _859  and  _860
REMARK  349  A    between atoms: _860  and  _861
REMARK  350  A    between atoms: _864  and  _866
REMARK  351  A    between atoms: _866  and  _867
REMARK  352  A    between atoms: _866  and  _869
REMARK  353  A    between atoms: _872  and  _874
REMARK  354  A    between atoms: _874  and  _875
REMARK  355  A    between atoms: _874  and  _877
REMARK  356  A    between atoms: _877  and  _878
REMARK  357  A    between atoms: _878  and  _879
REMARK  358  A    between atoms: _879  and  _880
REMARK                            x       y       z     vdW  Elec       q    Type
REMARK                         _______ _______ _______ _____ _____    ______ ____
ROOT
ATOM      1  O   HOH     1     -29.861  24.696 -33.452  0.00  0.00    +0.000 OA
ENDROOT
TORSDOF 0
REMARK  Name = ../refined-set-2016/4x8o/4x8o_pocket.pdb
REMARK  358 active torsions:
REMARK  status: ('A' for Active; 'I' for Inactive)
REMARK    1  A    between atoms: _1  and  _3
REMARK    2  A    between atoms: _3  and  _4
REMARK    3  A    between atoms: _3  and  _6
REMARK    4  A    between atoms: _6  and  _7
REMARK    5  A    between atoms: _10  and  _12
REMARK    6  A    between atoms: _12  and  _13
REMARK    7  A    between atoms: _12  and  _15
REMARK    8  A    between atoms: _15  and  _16
REMARK    9  A    between atoms: _19  and  _21
REMARK   10  A    between atoms: _21  and  _22
REMARK   11  A    between atoms: _24  and  _26
REMARK   12  A    between atoms: _26  and  _27
REMARK   13  A    between atoms: _31  and  _32
REMARK   14  A    between atoms: _37  and  _39
REMARK   15  A    between atoms: _39  and  _40
REMARK   16  A    between atoms: _42  and  _44
REMARK   17  A    between atoms: _44  and  _45
REMARK   18  A    between atoms: _48  and  _50
REMARK   19  A    between atoms: _50  and  _51
REMARK   20  A    between atoms: _53  and  _55
REMARK   21  A    between atoms: _55  and  _56
REMARK   22  A    between atoms: _55  and  _58
REMARK   23  A    between atoms: _58  and  _59
REMARK   24  A    between atoms: _59  and  _60
REMARK   25  A    between atoms: _60  and  _61
REMARK   26  A    between atoms: _61  and  _62
REMARK   27  A    between atoms: _66  and  _68
REMARK   28  A    between atoms: _68  and  _69
REMARK   29  A    between atoms: _71  and  _73
REMARK   30  A    between atoms: _73  and  _74
REMARK   31  A    between atoms: _73  and  _76
REMARK   32  A    between atoms: _76  and  _77
REMARK   33  A    between atoms: _80  and  _82
REMARK   34  A    between atoms: _82  and  _83
REMARK   35  A    between atoms: _82  and  _85
REMARK   36  A    between atoms: _85  and  _86
REMARK   37  A    between atoms: _86  and  _87
REMARK   38  A    between atoms: _92  and  _94
REMARK   39  A    between atoms: _94  and  _95
REMARK   40  A    between atoms: _98  and  _100
REMARK   41  A    between atoms: _100  and  _101
REMARK   42  A    between atoms: _100  and  _103
REMARK   43  A    between atoms: _103  and  _104
REMARK   44  A    between atoms: _104  and  _105
REMARK   45  A    between atoms: _110  and  _112
REMARK   46  A    between atoms: _112  and  _113
REMARK   47  A    between atoms: _112  and  _115
REMARK   48  A    between atoms: _115  and  _116
REMARK   49  A    between atoms: _122  and  _124
REMARK   50  A    between atoms: _124  and  _125
REMARK   51  A    between atoms: _124  and  _127
REMARK   52  A    between atoms: _127  and  _128
REMARK   53  A    between atoms: _128  and  _129
REMARK   54  A    between atoms: _134  and  _136
REMARK   55  A    between atoms: _136  and  _137
REMARK   56  A    between atoms: _136  and  _139
REMARK   57  A    between atoms: _139  and  _140
REMARK   58  A    between atoms: _142  and  _144
REMARK   59  A    between atoms: _144  and  _145
REMARK   60  A    between atoms: _144  and  _147
REMARK   61  A    between atoms: _147  and  _148
REMARK   62  A    between atoms: _151  and  _153
REMARK   63  A    between atoms: _153  and  _154
REMARK   64  A    between atoms: _156  and  _158
REMARK   65  A    between atoms: _158  and  _159
REMARK   66  A    between atoms: _158  and  _161
REMARK   67  A    between atoms: _161  and  _162
REMARK   68  A    between atoms: _165  and  _167
REMARK   69  A    between atoms: _167  and  _168
REMARK   70  A    between atoms: _167  and  _170
REMARK   71  A    between atoms: _170  and  _171
REMARK   72  A    between atoms: _171  and  _172
REMARK   73  A    between atoms: _174  and  _176
REMARK   74  A    between atoms: _176  and  _177
REMARK   75  A    between atoms: _176  and  _179
REMARK   76  A    between atoms: _179  and  _180
REMARK   77  A    between atoms: _183  and  _185
REMARK   78  A    between atoms: _185  and  _186
REMARK   79  A    between atoms: _185  and  _188
REMARK   80  A    between atoms: _188  and  _189
REMARK   81  A    between atoms: _189  and  _190
REMARK   82  A    between atoms: _190  and  _191
REMARK   83  A    between atoms: _200  and  _202
REMARK   84  A    between atoms: _202  and  _203
REMARK   85  A    between atoms: _206  and  _208
REMARK   86  A    between atoms: _208  and  _209
REMARK   87  A    between atoms: _208  and  _211
REMARK   88  A    between atoms: _211  and  _212
REMARK   89  A    between atoms: _212  and  _213
REMARK   90  A    between atoms: _213  and  _214
REMARK   91  A    between atoms: _214  and  _215
REMARK   92  A    between atoms: _219  and  _221
REMARK   93  A    between atoms: _221  and  _222
REMARK   94  A    between atoms: _221  and  _224
REMARK   95  A    between atoms: _224  and  _225
REMARK   96  A    between atoms: _228  and  _230
REMARK   97  A    between atoms: _230  and  _231
REMARK   98  A    between atoms: _230  and  _233
REMARK   99  A    between atoms: _233  and  _234
REMARK  100  A    between atoms: _237  and  _239
REMARK  101  A    between atoms: _239  and  _240
REMARK  102  A    between atoms: _239  and  _242
REMARK  103  A    between atoms: _242  and  _243
REMARK  104  A    between atoms: _243  and  _244
REMARK  105  A    between atoms: _246  and  _248
REMARK  106  A    between atoms: _248  and  _249
REMARK  107  A    between atoms: _248  and  _251
REMARK  108  A    between atoms: _251  and  _252
REMARK  109  A    between atoms: _255  and  _257
REMARK  110  A    between atoms: _257  and  _258
REMARK  111  A    between atoms: _261  and  _263
REMARK  112  A    between atoms: _263  and  _264
REMARK  113  A    between atoms: _266  and  _268
REMARK  114  A    between atoms: _268  and  _269
REMARK  115  A    between atoms: _268  and  _271
REMARK  116  A    between atoms: _271  and  _272
REMARK  117  A    between atoms: _272  and  _273
REMARK  118  A    between atoms: _273  and  _274
REMARK  119  A    between atoms: _274  and  _275
REMARK  120  A    between atoms: _279  and  _281
REMARK  121  A    between atoms: _281  and  _282
REMARK  122  A    between atoms: _281  and  _284
REMARK  123  A    between atoms: _284  and  _285
REMARK  124  A    between atoms: _288  and  _290
REMARK  125  A    between atoms: _290  and  _291
REMARK  126  A    between atoms: _290  and  _293
REMARK  127  A    between atoms: _296  and  _298
REMARK  128  A    between atoms: _298  and  _299
REMARK  129  A    between atoms: _298  and  _301
REMARK  130  A    between atoms: _301  and  _302
REMARK  131  A    between atoms: _305  and  _307
REMARK  132  A    between atoms: _307  and  _308
REMARK  133  A    between atoms: _307  and  _310
REMARK  134  A    between atoms: _310  and  _311
REMARK  135  A    between atoms: _314  and  _316
REMARK  136  A    between atoms: _316  and  _317
REMARK  137  A    between atoms: _316  and  _319
REMARK  138  A    between atoms: _319  and  _320
REMARK  139  A    between atoms: _320  and  _321
REMARK  140  A    between atoms: _324  and  _326
REMARK  141  A    between atoms: _326  and  _327
REMARK  142  A    between atoms: _326  and  _329
REMARK  143  A    between atoms: _329  and  _330
REMARK  144  A    between atoms: _333  and  _335
REMARK  145  A    between atoms: _335  and  _336
REMARK  146  A    between atoms: _335  and  _338
REMARK  147  A    between atoms: _341  and  _343
REMARK  148  A    between atoms: _343  and  _344
REMARK  149  A    between atoms: _343  and  _346
REMARK  150  A    between atoms: _346  and  _347
REMARK  151  A    between atoms: _350  and  _352
REMARK  152  A    between atoms: _352  and  _353
REMARK  153  A    between atoms: _352  and  _355
REMARK  154  A    between atoms: _358  and  _360
REMARK  155  A    between atoms: _360  and  _361
REMARK  156  A    between atoms: _360  and  _363
REMARK  157  A    between atoms: _363  and  _364
REMARK  158  A    between atoms: _367  and  _369
REMARK  159  A    between atoms: _369  and  _370
REMARK  160  A    between atoms: _372  and  _374
REMARK  161  A    between atoms: _374  and  _375
REMARK  162  A    between atoms: _374  and  _377
REMARK  163  A    between atoms: _377  and  _378
REMARK  164  A    between atoms: _385  and  _386
REMARK  165  A    between atoms: _391  and  _393
REMARK  166  A    between atoms: _393  and  _394
REMARK  167  A    between atoms: _393  and  _396
REMARK  168  A    between atoms: _396  and  _397
REMARK  169  A    between atoms: _397  and  _398
REMARK  170  A    between atoms: _398  and  _399
REMARK  171  A    between atoms: _408  and  _410
REMARK  172  A    between atoms: _410  and  _411
REMARK  173  A    between atoms: _410  and  _413
REMARK  174  A    between atoms: _413  and  _414
REMARK  175  A    between atoms: _417  and  _419
REMARK  176  A    between atoms: _419  and  _420
REMARK  177  A    between atoms: _419  and  _422
REMARK  178  A    between atoms: _422  and  _423
REMARK  179  A    between atoms: _423  and  _424
REMARK  180  A    between atoms: _429  and  _431
REMARK  181  A    between atoms: _431  and  _432
REMARK  182  A    between atoms: _431  and  _434
REMARK  183  A    between atoms: _434  and  _435
REMARK  184  A    between atoms: _441  and  _443
REMARK  185  A    between atoms: _443  and  _444
REMARK  186  A    between atoms: _443  and  _446
REMARK  187  A    between atoms: _449  and  _451
REMARK  188  A    between atoms: _451  and  _452
REMARK  189  A    between atoms: _451  and  _454
REMARK  190  A    between atoms: _454  and  _455
REMARK  191  A    between atoms: _458  and  _460
REMARK  192  A    between atoms: _460  and  _461
REMARK  193  A    between atoms: _460  and  _463
REMARK  194  A    between atoms: _463  and  _464
REMARK  195  A    between atoms: _467  and  _469
REMARK  196  A    between atoms: _469  and  _470
REMARK  197  A    between atoms: _469  and  _472
REMARK  198  A    between atoms: _475  and  _477
REMARK  199  A    between atoms: _477  and  _478
REMARK  200  A    between atoms: _477  and  _480
REMARK  201  A    between atoms: _480  and  _481
REMARK  202  A    between atoms: _484  and  _486
REMARK  203  A    between atoms: _486  and  _487
REMARK  204  A    between atoms: _486  and  _489
REMARK  205  A    between atoms: _489  and  _490
REMARK  206  A    between atoms: _490  and  _491
REMARK  207  A    between atoms: _491  and  _492
REMARK  208  A    between atoms: _501  and  _503
REMARK  209  A    between atoms: _503  and  _504
REMARK  210  A    between atoms: _503  and  _506
REMARK  211  A    between atoms: _506  and  _507
REMARK  212  A    between atoms: _510  and  _512
REMARK  213  A    between atoms: _512  and  _513
REMARK  214  A    between atoms: _512  and  _515
REMARK  215  A    between atoms: _518  and  _520
REMARK  216  A    between atoms: _520  and  _521
REMARK  217  A    between atoms: _523  and  _525
REMARK  218  A    between atoms: _525  and  _526
REMARK  219  A    between atoms: _525  and  _528
REMARK  220  A    between atoms: _528  and  _529
REMARK  221  A    between atoms: _529  and  _530
REMARK  222  A    between atoms: _530  and  _531
REMARK  223  A    between atoms: _540  and  _542
REMARK  224  A    between atoms: _542  and  _543
REMARK  225  A    between atoms: _542  and  _545
REMARK  226  A    between atoms: _545  and  _546
REMARK  227  A    between atoms: _546  and  _547
REMARK  228  A    between atoms: _547  and  _548
REMARK  229  A    between atoms: _557  and  _559
REMARK  230  A    between atoms: _559  and  _560
REMARK  231  A    between atoms: _559  and  _562
REMARK  232  A    between atoms: _565  and  _567
REMARK  233  A    between atoms: _567  and  _568
REMARK  234  A    between atoms: _570  and  _572
REMARK  235  A    between atoms: _572  and  _573
REMARK  236  A    between atoms: _572  and  _575
REMARK  237  A    between atoms: _575  and  _576
REMARK  238  A    between atoms: _576  and  _577
REMARK  239  A    between atoms: _577  and  _578
REMARK  240  A    between atoms: _587  and  _589
REMARK  241  A    between atoms: _589  and  _590
REMARK  242  A    between atoms: _589  and  _592
REMARK  243  A    between atoms: _595  and  _597
REMARK  244  A    between atoms: _597  and  _598
REMARK  245  A    between atoms: _597  and  _600
REMARK  246  A    between atoms: _600  and  _601
REMARK  247  A    between atoms: _606  and  _607
REMARK  248  A    between atoms: _609  and  _611
REMARK  249  A    between atoms: _611  and  _612
REMARK  250  A    between atoms: _611  and  _614
REMARK  251  A    between atoms: _614  and  _615
REMARK  252  A    between atoms: _620  and  _622
REMARK  253  A    between atoms: _622  and  _623
REMARK  254  A    between atoms: _622  and  _625
REMARK  255  A    between atoms: _628  and  _630
REMARK  256  A    between atoms: _630  and  _631
REMARK  257  A    between atoms: _630  and  _633
REMARK  258  A    between atoms: _633  and  _634
REMARK  259  A    between atoms: _634  and  _635
REMARK  260  A    between atoms: _635  and  _636
REMARK  261  A    between atoms: _636  and  _637
REMARK  262  A    between atoms: _641  and  _643
REMARK  263  A    between atoms: _643  and  _644
REMARK  264  A    between atoms: _643  and  _646
REMARK  265  A    between atoms: _646  and  _647
REMARK  266  A    between atoms: _653  and  _655
REMARK  267  A    between atoms: _655  and  _656
REMARK  268  A    between atoms: _655  and  _658
REMARK  269  A    between atoms: _658  and  _659
REMARK  270  A    between atoms: _665  and  _666
REMARK  271  A    between atoms: _671  and  _673
REMARK  272  A    between atoms: _673  and  _674
REMARK  273  A    between atoms: _673  and  _676
REMARK  274  A    between atoms: _676  and  _677
REMARK  275  A    between atoms: _677  and  _678
REMARK  276  A    between atoms: _678  and  _679
REMARK  277  A    between atoms: _688  and  _690
REMARK  278  A    between atoms: _690  and  _691
REMARK  279  A    between atoms: _690  and  _693
REMARK  280  A    between atoms: _693  and  _694
REMARK  281  A    between atoms: _697  and  _699
REMARK  282  A    between atoms: _699  and  _700
REMARK  283  A    between atoms: _699  and  _702
REMARK  284  A    between atoms: _702  and  _703
REMARK  285  A    between atoms: _706  and  _708
REMARK  286  A    between atoms: _708  and  _709
REMARK  287  A    between atoms: _708  and  _711
REMARK  288  A    between atoms: _711  and  _712
REMARK  289  A    between atoms: _715  and  _717
REMARK  290  A    between atoms: _717  and  _718
REMARK  291  A    between atoms: _717  and  _720
REMARK  292  A    between atoms: _723  and  _725
REMARK  293  A    between atoms: _725  and  _726
REMARK  294  A    between atoms: _725  and  _728
REMARK  295  A    between atoms: _728  and  _729
REMARK  296  A    between atoms: _729  and  _730
REMARK  297  A    between atoms: _730  and  _731
REMARK  298  A    between atoms: _731  and  _732
REMARK  299  A    between atoms: _736  and  _738
REMARK  300  A    between atoms: _738  and  _739
REMARK  301  A    between atoms: _738  and  _741
REMARK  302  A    between atoms: _741  and  _742
REMARK  303  A    between atoms: _742  and  _743
REMARK  304  A    between atoms: _743  and  _744
REMARK  305  A    between atoms: _753  and  _755
REMARK  306  A    between atoms: _755  and  _756
REMARK  307  A    between atoms: _755  and  _758
REMARK  308  A    between atoms: _758  and  _759
REMARK  309  A    between atoms: _762  and  _764
REMARK  310  A    between atoms: _764  and  _765
REMARK  311  A    between atoms: _764  and  _767
REMARK  312  A    between atoms: _767  and  _768
REMARK  313  A    between atoms: _768  and  _769
REMARK  314  A    between atoms: _772  and  _774
REMARK  315  A    between atoms: _774  and  _775
REMARK  316  A    between atoms: _774  and  _777
REMARK  317  A    between atoms: _777  and  _778
REMARK  318  A    between atoms: _788  and  _790
REMARK  319  A    between atoms: _790  and  _791
REMARK  320  A    between atoms: _790  and  _793
REMARK  321  A    between atoms: _793  and  _794
REMARK  322  A    between atoms: _797  and  _799
REMARK  323  A    between atoms: _799  and  _800
REMARK  324  A    between atoms: _799  and  _802
REMARK  325  A    between atoms: _802  and  _803
REMARK  326  A    between atoms: _806  and  _808
REMARK  327  A    between atoms: _808  and  _809
REMARK  328  A    between atoms: _811  and  _813
REMARK  329  A    between atoms: _813  and  _814
REMARK  330  A    between atoms: _813  and  _816
REMARK  331  A    between atoms: _816  and  _817
REMARK  332  A    between atoms: _820  and  _822
REMARK  333  A    between atoms: _822  and  _823
REMARK  334  A    between atoms: _822  and  _825
REMARK  335  A    between atoms: _825  and  _826
REMARK  336  A    between atoms: _826  and  _827
REMARK  337  A    between atoms: _827  and  _828
REMARK  338  A    between atoms: _828  and  _829
REMARK  339  A    between atoms: _834  and  _835
REMARK  340  A    between atoms: _840  and  _842
REMARK  341  A    between atoms: _842  and  _843
REMARK  342  A    between atoms: _842  and  _845
REMARK  343  A    between atoms: _848  and  _850
REMARK  344  A    between atoms: _850  and  _851
REMARK  345  A    between atoms: _854  and  _856
REMARK  346  A    between atoms: _856  and  _857
REMARK  347  A    between atoms: _856  and  _859
REMARK  348  A    between atoms: _859  and  _860
REMARK  349  A    between atoms: _860  and  _861
REMARK  350  A    between atoms: _864  and  _866
REMARK  351  A    between atoms: _866  and  _867
REMARK  352  A    between atoms: _866  and  _869
REMARK  353  A    between atoms: _872  and  _874
REMARK  354  A    between atoms: _874  and  _875
REMARK  355  A    between atoms: _874  and  _877
REMARK  356  A    between atoms: _877  and  _878
REMARK  357  A    between atoms: _878  and  _879
REMARK  358  A    between atoms: _879  and  _880
REMARK                            x       y       z     vdW  Elec       q    Type
REMARK                         _______ _______ _______ _____ _____    ______ ____
ROOT
ATOM      1  O   HOH     1     -14.739   9.439 -26.691  0.00  0.00    +0.000 OA
ENDROOT
TORSDOF 0
REMARK  Name = ../refined-set-2016/4x8o/4x8o_pocket.pdb
REMARK  358 active torsions:
REMARK  status: ('A' for Active; 'I' for Inactive)
REMARK    1  A    between atoms: _1  and  _3
REMARK    2  A    between atoms: _3  and  _4
REMARK    3  A    between atoms: _3  and  _6
REMARK    4  A    between atoms: _6  and  _7
REMARK    5  A    between atoms: _10  and  _12
REMARK    6  A    between atoms: _12  and  _13
REMARK    7  A    between atoms: _12  and  _15
REMARK    8  A    between atoms: _15  and  _16
REMARK    9  A    between atoms: _19  and  _21
REMARK   10  A    between atoms: _21  and  _22
REMARK   11  A    between atoms: _24  and  _26
REMARK   12  A    between atoms: _26  and  _27
REMARK   13  A    between atoms: _31  and  _32
REMARK   14  A    between atoms: _37  and  _39
REMARK   15  A    between atoms: _39  and  _40
REMARK   16  A    between atoms: _42  and  _44
REMARK   17  A    between atoms: _44  and  _45
REMARK   18  A    between atoms: _48  and  _50
REMARK   19  A    between atoms: _50  and  _51
REMARK   20  A    between atoms: _53  and  _55
REMARK   21  A    between atoms: _55  and  _56
REMARK   22  A    between atoms: _55  and  _58
REMARK   23  A    between atoms: _58  and  _59
REMARK   24  A    between atoms: _59  and  _60
REMARK   25  A    between atoms: _60  and  _61
REMARK   26  A    between atoms: _61  and  _62
REMARK   27  A    between atoms: _66  and  _68
REMARK   28  A    between atoms: _68  and  _69
REMARK   29  A    between atoms: _71  and  _73
REMARK   30  A    between atoms: _73  and  _74
REMARK   31  A    between atoms: _73  and  _76
REMARK   32  A    between atoms: _76  and  _77
REMARK   33  A    between atoms: _80  and  _82
REMARK   34  A    between atoms: _82  and  _83
REMARK   35  A    between atoms: _82  and  _85
REMARK   36  A    between atoms: _85  and  _86
REMARK   37  A    between atoms: _86  and  _87
REMARK   38  A    between atoms: _92  and  _94
REMARK   39  A    between atoms: _94  and  _95
REMARK   40  A    between atoms: _98  and  _100
REMARK   41  A    between atoms: _100  and  _101
REMARK   42  A    between atoms: _100  and  _103
REMARK   43  A    between atoms: _103  and  _104
REMARK   44  A    between atoms: _104  and  _105
REMARK   45  A    between atoms: _110  and  _112
REMARK   46  A    between atoms: _112  and  _113
REMARK   47  A    between atoms: _112  and  _115
REMARK   48  A    between atoms: _115  and  _116
REMARK   49  A    between atoms: _122  and  _124
REMARK   50  A    between atoms: _124  and  _125
REMARK   51  A    between atoms: _124  and  _127
REMARK   52  A    between atoms: _127  and  _128
REMARK   53  A    between atoms: _128  and  _129
REMARK   54  A    between atoms: _134  and  _136
REMARK   55  A    between atoms: _136  and  _137
REMARK   56  A    between atoms: _136  and  _139
REMARK   57  A    between atoms: _139  and  _140
REMARK   58  A    between atoms: _142  and  _144
REMARK   59  A    between atoms: _144  and  _145
REMARK   60  A    between atoms: _144  and  _147
REMARK   61  A    between atoms: _147  and  _148
REMARK   62  A    between atoms: _151  and  _153
REMARK   63  A    between atoms: _153  and  _154
REMARK   64  A    between atoms: _156  and  _158
REMARK   65  A    between atoms: _158  and  _159
REMARK   66  A    between atoms: _158  and  _161
REMARK   67  A    between atoms: _161  and  _162
REMARK   68  A    between atoms: _165  and  _167
REMARK   69  A    between atoms: _167  and  _168
REMARK   70  A    between atoms: _167  and  _170
REMARK   71  A    between atoms: _170  and  _171
REMARK   72  A    between atoms: _171  and  _172
REMARK   73  A    between atoms: _174  and  _176
REMARK   74  A    between atoms: _176  and  _177
REMARK   75  A    between atoms: _176  and  _179
REMARK   76  A    between atoms: _179  and  _180
REMARK   77  A    between atoms: _183  and  _185
REMARK   78  A    between atoms: _185  and  _186
REMARK   79  A    between atoms: _185  and  _188
REMARK   80  A    between atoms: _188  and  _189
REMARK   81  A    between atoms: _189  and  _190
REMARK   82  A    between atoms: _190  and  _191
REMARK   83  A    between atoms: _200  and  _202
REMARK   84  A    between atoms: _202  and  _203
REMARK   85  A    between atoms: _206  and  _208
REMARK   86  A    between atoms: _208  and  _209
REMARK   87  A    between atoms: _208  and  _211
REMARK   88  A    between atoms: _211  and  _212
REMARK   89  A    between atoms: _212  and  _213
REMARK   90  A    between atoms: _213  and  _214
REMARK   91  A    between atoms: _214  and  _215
REMARK   92  A    between atoms: _219  and  _221
REMARK   93  A    between atoms: _221  and  _222
REMARK   94  A    between atoms: _221  and  _224
REMARK   95  A    between atoms: _224  and  _225
REMARK   96  A    between atoms: _228  and  _230
REMARK   97  A    between atoms: _230  and  _231
REMARK   98  A    between atoms: _230  and  _233
REMARK   99  A    between atoms: _233  and  _234
REMARK  100  A    between atoms: _237  and  _239
REMARK  101  A    between atoms: _239  and  _240
REMARK  102  A    between atoms: _239  and  _242
REMARK  103  A    between atoms: _242  and  _243
REMARK  104  A    between atoms: _243  and  _244
REMARK  105  A    between atoms: _246  and  _248
REMARK  106  A    between atoms: _248  and  _249
REMARK  107  A    between atoms: _248  and  _251
REMARK  108  A    between atoms: _251  and  _252
REMARK  109  A    between atoms: _255  and  _257
REMARK  110  A    between atoms: _257  and  _258
REMARK  111  A    between atoms: _261  and  _263
REMARK  112  A    between atoms: _263  and  _264
REMARK  113  A    between atoms: _266  and  _268
REMARK  114  A    between atoms: _268  and  _269
REMARK  115  A    between atoms: _268  and  _271
REMARK  116  A    between atoms: _271  and  _272
REMARK  117  A    between atoms: _272  and  _273
REMARK  118  A    between atoms: _273  and  _274
REMARK  119  A    between atoms: _274  and  _275
REMARK  120  A    between atoms: _279  and  _281
REMARK  121  A    between atoms: _281  and  _282
REMARK  122  A    between atoms: _281  and  _284
REMARK  123  A    between atoms: _284  and  _285
REMARK  124  A    between atoms: _288  and  _290
REMARK  125  A    between atoms: _290  and  _291
REMARK  126  A    between atoms: _290  and  _293
REMARK  127  A    between atoms: _296  and  _298
REMARK  128  A    between atoms: _298  and  _299
REMARK  129  A    between atoms: _298  and  _301
REMARK  130  A    between atoms: _301  and  _302
REMARK  131  A    between atoms: _305  and  _307
REMARK  132  A    between atoms: _307  and  _308
REMARK  133  A    between atoms: _307  and  _310
REMARK  134  A    between atoms: _310  and  _311
REMARK  135  A    between atoms: _314  and  _316
REMARK  136  A    between atoms: _316  and  _317
REMARK  137  A    between atoms: _316  and  _319
REMARK  138  A    between atoms: _319  and  _320
REMARK  139  A    between atoms: _320  and  _321
REMARK  140  A    between atoms: _324  and  _326
REMARK  141  A    between atoms: _326  and  _327
REMARK  142  A    between atoms: _326  and  _329
REMARK  143  A    between atoms: _329  and  _330
REMARK  144  A    between atoms: _333  and  _335
REMARK  145  A    between atoms: _335  and  _336
REMARK  146  A    between atoms: _335  and  _338
REMARK  147  A    between atoms: _341  and  _343
REMARK  148  A    between atoms: _343  and  _344
REMARK  149  A    between atoms: _343  and  _346
REMARK  150  A    between atoms: _346  and  _347
REMARK  151  A    between atoms: _350  and  _352
REMARK  152  A    between atoms: _352  and  _353
REMARK  153  A    between atoms: _352  and  _355
REMARK  154  A    between atoms: _358  and  _360
REMARK  155  A    between atoms: _360  and  _361
REMARK  156  A    between atoms: _360  and  _363
REMARK  157  A    between atoms: _363  and  _364
REMARK  158  A    between atoms: _367  and  _369
REMARK  159  A    between atoms: _369  and  _370
REMARK  160  A    between atoms: _372  and  _374
REMARK  161  A    between atoms: _374  and  _375
REMARK  162  A    between atoms: _374  and  _377
REMARK  163  A    between atoms: _377  and  _378
REMARK  164  A    between atoms: _385  and  _386
REMARK  165  A    between atoms: _391  and  _393
REMARK  166  A    between atoms: _393  and  _394
REMARK  167  A    between atoms: _393  and  _396
REMARK  168  A    between atoms: _396  and  _397
REMARK  169  A    between atoms: _397  and  _398
REMARK  170  A    between atoms: _398  and  _399
REMARK  171  A    between atoms: _408  and  _410
REMARK  172  A    between atoms: _410  and  _411
REMARK  173  A    between atoms: _410  and  _413
REMARK  174  A    between atoms: _413  and  _414
REMARK  175  A    between atoms: _417  and  _419
REMARK  176  A    between atoms: _419  and  _420
REMARK  177  A    between atoms: _419  and  _422
REMARK  178  A    between atoms: _422  and  _423
REMARK  179  A    between atoms: _423  and  _424
REMARK  180  A    between atoms: _429  and  _431
REMARK  181  A    between atoms: _431  and  _432
REMARK  182  A    between atoms: _431  and  _434
REMARK  183  A    between atoms: _434  and  _435
REMARK  184  A    between atoms: _441  and  _443
REMARK  185  A    between atoms: _443  and  _444
REMARK  186  A    between atoms: _443  and  _446
REMARK  187  A    between atoms: _449  and  _451
REMARK  188  A    between atoms: _451  and  _452
REMARK  189  A    between atoms: _451  and  _454
REMARK  190  A    between atoms: _454  and  _455
REMARK  191  A    between atoms: _458  and  _460
REMARK  192  A    between atoms: _460  and  _461
REMARK  193  A    between atoms: _460  and  _463
REMARK  194  A    between atoms: _463  and  _464
REMARK  195  A    between atoms: _467  and  _469
REMARK  196  A    between atoms: _469  and  _470
REMARK  197  A    between atoms: _469  and  _472
REMARK  198  A    between atoms: _475  and  _477
REMARK  199  A    between atoms: _477  and  _478
REMARK  200  A    between atoms: _477  and  _480
REMARK  201  A    between atoms: _480  and  _481
REMARK  202  A    between atoms: _484  and  _486
REMARK  203  A    between atoms: _486  and  _487
REMARK  204  A    between atoms: _486  and  _489
REMARK  205  A    between atoms: _489  and  _490
REMARK  206  A    between atoms: _490  and  _491
REMARK  207  A    between atoms: _491  and  _492
REMARK  208  A    between atoms: _501  and  _503
REMARK  209  A    between atoms: _503  and  _504
REMARK  210  A    between atoms: _503  and  _506
REMARK  211  A    between atoms: _506  and  _507
REMARK  212  A    between atoms: _510  and  _512
REMARK  213  A    between atoms: _512  and  _513
REMARK  214  A    between atoms: _512  and  _515
REMARK  215  A    between atoms: _518  and  _520
REMARK  216  A    between atoms: _520  and  _521
REMARK  217  A    between atoms: _523  and  _525
REMARK  218  A    between atoms: _525  and  _526
REMARK  219  A    between atoms: _525  and  _528
REMARK  220  A    between atoms: _528  and  _529
REMARK  221  A    between atoms: _529  and  _530
REMARK  222  A    between atoms: _530  and  _531
REMARK  223  A    between atoms: _540  and  _542
REMARK  224  A    between atoms: _542  and  _543
REMARK  225  A    between atoms: _542  and  _545
REMARK  226  A    between atoms: _545  and  _546
REMARK  227  A    between atoms: _546  and  _547
REMARK  228  A    between atoms: _547  and  _548
REMARK  229  A    between atoms: _557  and  _559
REMARK  230  A    between atoms: _559  and  _560
REMARK  231  A    between atoms: _559  and  _562
REMARK  232  A    between atoms: _565  and  _567
REMARK  233  A    between atoms: _567  and  _568
REMARK  234  A    between atoms: _570  and  _572
REMARK  235  A    between atoms: _572  and  _573
REMARK  236  A    between atoms: _572  and  _575
REMARK  237  A    between atoms: _575  and  _576
REMARK  238  A    between atoms: _576  and  _577
REMARK  239  A    between atoms: _577  and  _578
REMARK  240  A    between atoms: _587  and  _589
REMARK  241  A    between atoms: _589  and  _590
REMARK  242  A    between atoms: _589  and  _592
REMARK  243  A    between atoms: _595  and  _597
REMARK  244  A    between atoms: _597  and  _598
REMARK  245  A    between atoms: _597  and  _600
REMARK  246  A    between atoms: _600  and  _601
REMARK  247  A    between atoms: _606  and  _607
REMARK  248  A    between atoms: _609  and  _611
REMARK  249  A    between atoms: _611  and  _612
REMARK  250  A    between atoms: _611  and  _614
REMARK  251  A    between atoms: _614  and  _615
REMARK  252  A    between atoms: _620  and  _622
REMARK  253  A    between atoms: _622  and  _623
REMARK  254  A    between atoms: _622  and  _625
REMARK  255  A    between atoms: _628  and  _630
REMARK  256  A    between atoms: _630  and  _631
REMARK  257  A    between atoms: _630  and  _633
REMARK  258  A    between atoms: _633  and  _634
REMARK  259  A    between atoms: _634  and  _635
REMARK  260  A    between atoms: _635  and  _636
REMARK  261  A    between atoms: _636  and  _637
REMARK  262  A    between atoms: _641  and  _643
REMARK  263  A    between atoms: _643  and  _644
REMARK  264  A    between atoms: _643  and  _646
REMARK  265  A    between atoms: _646  and  _647
REMARK  266  A    between atoms: _653  and  _655
REMARK  267  A    between atoms: _655  and  _656
REMARK  268  A    between atoms: _655  and  _658
REMARK  269  A    between atoms: _658  and  _659
REMARK  270  A    between atoms: _665  and  _666
REMARK  271  A    between atoms: _671  and  _673
REMARK  272  A    between atoms: _673  and  _674
REMARK  273  A    between atoms: _673  and  _676
REMARK  274  A    between atoms: _676  and  _677
REMARK  275  A    between atoms: _677  and  _678
REMARK  276  A    between atoms: _678  and  _679
REMARK  277  A    between atoms: _688  and  _690
REMARK  278  A    between atoms: _690  and  _691
REMARK  279  A    between atoms: _690  and  _693
REMARK  280  A    between atoms: _693  and  _694
REMARK  281  A    between atoms: _697  and  _699
REMARK  282  A    between atoms: _699  and  _700
REMARK  283  A    between atoms: _699  and  _702
REMARK  284  A    between atoms: _702  and  _703
REMARK  285  A    between atoms: _706  and  _708
REMARK  286  A    between atoms: _708  and  _709
REMARK  287  A    between atoms: _708  and  _711
REMARK  288  A    between atoms: _711  and  _712
REMARK  289  A    between atoms: _715  and  _717
REMARK  290  A    between atoms: _717  and  _718
REMARK  291  A    between atoms: _717  and  _720
REMARK  292  A    between atoms: _723  and  _725
REMARK  293  A    between atoms: _725  and  _726
REMARK  294  A    between atoms: _725  and  _728
REMARK  295  A    between atoms: _728  and  _729
REMARK  296  A    between atoms: _729  and  _730
REMARK  297  A    between atoms: _730  and  _731
REMARK  298  A    between atoms: _731  and  _732
REMARK  299  A    between atoms: _736  and  _738
REMARK  300  A    between atoms: _738  and  _739
REMARK  301  A    between atoms: _738  and  _741
REMARK  302  A    between atoms: _741  and  _742
REMARK  303  A    between atoms: _742  and  _743
REMARK  304  A    between atoms: _743  and  _744
REMARK  305  A    between atoms: _753  and  _755
REMARK  306  A    between atoms: _755  and  _756
REMARK  307  A    between atoms: _755  and  _758
REMARK  308  A    between atoms: _758  and  _759
REMARK  309  A    between atoms: _762  and  _764
REMARK  310  A    between atoms: _764  and  _765
REMARK  311  A    between atoms: _764  and  _767
REMARK  312  A    between atoms: _767  and  _768
REMARK  313  A    between atoms: _768  and  _769
REMARK  314  A    between atoms: _772  and  _774
REMARK  315  A    between atoms: _774  and  _775
REMARK  316  A    between atoms: _774  and  _777
REMARK  317  A    between atoms: _777  and  _778
REMARK  318  A    between atoms: _788  and  _790
REMARK  319  A    between atoms: _790  and  _791
REMARK  320  A    between atoms: _790  and  _793
REMARK  321  A    between atoms: _793  and  _794
REMARK  322  A    between atoms: _797  and  _799
REMARK  323  A    between atoms: _799  and  _800
REMARK  324  A    between atoms: _799  and  _802
REMARK  325  A    between atoms: _802  and  _803
REMARK  326  A    between atoms: _806  and  _808
REMARK  327  A    between atoms: _808  and  _809
REMARK  328  A    between atoms: _811  and  _813
REMARK  329  A    between atoms: _813  and  _814
REMARK  330  A    between atoms: _813  and  _816
REMARK  331  A    between atoms: _816  and  _817
REMARK  332  A    between atoms: _820  and  _822
REMARK  333  A    between atoms: _822  and  _823
REMARK  334  A    between atoms: _822  and  _825
REMARK  335  A    between atoms: _825  and  _826
REMARK  336  A    between atoms: _826  and  _827
REMARK  337  A    between atoms: _827  and  _828
REMARK  338  A    between atoms: _828  and  _829
REMARK  339  A    between atoms: _834  and  _835
REMARK  340  A    between atoms: _840  and  _842
REMARK  341  A    between atoms: _842  and  _843
REMARK  342  A    between atoms: _842  and  _845
REMARK  343  A    between atoms: _848  and  _850
REMARK  344  A    between atoms: _850  and  _851
REMARK  345  A    between atoms: _854  and  _856
REMARK  346  A    between atoms: _856  and  _857
REMARK  347  A    between atoms: _856  and  _859
REMARK  348  A    between atoms: _859  and  _860
REMARK  349  A    between atoms: _860  and  _861
REMARK  350  A    between atoms: _864  and  _866
REMARK  351  A    between atoms: _866  and  _867
REMARK  352  A    between atoms: _866  and  _869
REMARK  353  A    between atoms: _872  and  _874
REMARK  354  A    between atoms: _874  and  _875
REMARK  355  A    between atoms: _874  and  _877
REMARK  356  A    between atoms: _877  and  _878
REMARK  357  A    between atoms: _878  and  _879
REMARK  358  A    between atoms: _879  and  _880
REMARK                            x       y       z     vdW  Elec       q    Type
REMARK                         _______ _______ _______ _____ _____    ______ ____
ROOT
ATOM      1  O   HOH     1     -22.865  21.438 -43.028  0.00  0.00    +0.000 OA
ENDROOT
TORSDOF 0
REMARK  Name = ../refined-set-2016/4x8o/4x8o_pocket.pdb
REMARK  358 active torsions:
REMARK  status: ('A' for Active; 'I' for Inactive)
REMARK    1  A    between atoms: _1  and  _3
REMARK    2  A    between atoms: _3  and  _4
REMARK    3  A    between atoms: _3  and  _6
REMARK    4  A    between atoms: _6  and  _7
REMARK    5  A    between atoms: _10  and  _12
REMARK    6  A    between atoms: _12  and  _13
REMARK    7  A    between atoms: _12  and  _15
REMARK    8  A    between atoms: _15  and  _16
REMARK    9  A    between atoms: _19  and  _21
REMARK   10  A    between atoms: _21  and  _22
REMARK   11  A    between atoms: _24  and  _26
REMARK   12  A    between atoms: _26  and  _27
REMARK   13  A    between atoms: _31  and  _32
REMARK   14  A    between atoms: _37  and  _39
REMARK   15  A    between atoms: _39  and  _40
REMARK   16  A    between atoms: _42  and  _44
REMARK   17  A    between atoms: _44  and  _45
REMARK   18  A    between atoms: _48  and  _50
REMARK   19  A    between atoms: _50  and  _51
REMARK   20  A    between atoms: _53  and  _55
REMARK   21  A    between atoms: _55  and  _56
REMARK   22  A    between atoms: _55  and  _58
REMARK   23  A    between atoms: _58  and  _59
REMARK   24  A    between atoms: _59  and  _60
REMARK   25  A    between atoms: _60  and  _61
REMARK   26  A    between atoms: _61  and  _62
REMARK   27  A    between atoms: _66  and  _68
REMARK   28  A    between atoms: _68  and  _69
REMARK   29  A    between atoms: _71  and  _73
REMARK   30  A    between atoms: _73  and  _74
REMARK   31  A    between atoms: _73  and  _76
REMARK   32  A    between atoms: _76  and  _77
REMARK   33  A    between atoms: _80  and  _82
REMARK   34  A    between atoms: _82  and  _83
REMARK   35  A    between atoms: _82  and  _85
REMARK   36  A    between atoms: _85  and  _86
REMARK   37  A    between atoms: _86  and  _87
REMARK   38  A    between atoms: _92  and  _94
REMARK   39  A    between atoms: _94  and  _95
REMARK   40  A    between atoms: _98  and  _100
REMARK   41  A    between atoms: _100  and  _101
REMARK   42  A    between atoms: _100  and  _103
REMARK   43  A    between atoms: _103  and  _104
REMARK   44  A    between atoms: _104  and  _105
REMARK   45  A    between atoms: _110  and  _112
REMARK   46  A    between atoms: _112  and  _113
REMARK   47  A    between atoms: _112  and  _115
REMARK   48  A    between atoms: _115  and  _116
REMARK   49  A    between atoms: _122  and  _124
REMARK   50  A    between atoms: _124  and  _125
REMARK   51  A    between atoms: _124  and  _127
REMARK   52  A    between atoms: _127  and  _128
REMARK   53  A    between atoms: _128  and  _129
REMARK   54  A    between atoms: _134  and  _136
REMARK   55  A    between atoms: _136  and  _137
REMARK   56  A    between atoms: _136  and  _139
REMARK   57  A    between atoms: _139  and  _140
REMARK   58  A    between atoms: _142  and  _144
REMARK   59  A    between atoms: _144  and  _145
REMARK   60  A    between atoms: _144  and  _147
REMARK   61  A    between atoms: _147  and  _148
REMARK   62  A    between atoms: _151  and  _153
REMARK   63  A    between atoms: _153  and  _154
REMARK   64  A    between atoms: _156  and  _158
REMARK   65  A    between atoms: _158  and  _159
REMARK   66  A    between atoms: _158  and  _161
REMARK   67  A    between atoms: _161  and  _162
REMARK   68  A    between atoms: _165  and  _167
REMARK   69  A    between atoms: _167  and  _168
REMARK   70  A    between atoms: _167  and  _170
REMARK   71  A    between atoms: _170  and  _171
REMARK   72  A    between atoms: _171  and  _172
REMARK   73  A    between atoms: _174  and  _176
REMARK   74  A    between atoms: _176  and  _177
REMARK   75  A    between atoms: _176  and  _179
REMARK   76  A    between atoms: _179  and  _180
REMARK   77  A    between atoms: _183  and  _185
REMARK   78  A    between atoms: _185  and  _186
REMARK   79  A    between atoms: _185  and  _188
REMARK   80  A    between atoms: _188  and  _189
REMARK   81  A    between atoms: _189  and  _190
REMARK   82  A    between atoms: _190  and  _191
REMARK   83  A    between atoms: _200  and  _202
REMARK   84  A    between atoms: _202  and  _203
REMARK   85  A    between atoms: _206  and  _208
REMARK   86  A    between atoms: _208  and  _209
REMARK   87  A    between atoms: _208  and  _211
REMARK   88  A    between atoms: _211  and  _212
REMARK   89  A    between atoms: _212  and  _213
REMARK   90  A    between atoms: _213  and  _214
REMARK   91  A    between atoms: _214  and  _215
REMARK   92  A    between atoms: _219  and  _221
REMARK   93  A    between atoms: _221  and  _222
REMARK   94  A    between atoms: _221  and  _224
REMARK   95  A    between atoms: _224  and  _225
REMARK   96  A    between atoms: _228  and  _230
REMARK   97  A    between atoms: _230  and  _231
REMARK   98  A    between atoms: _230  and  _233
REMARK   99  A    between atoms: _233  and  _234
REMARK  100  A    between atoms: _237  and  _239
REMARK  101  A    between atoms: _239  and  _240
REMARK  102  A    between atoms: _239  and  _242
REMARK  103  A    between atoms: _242  and  _243
REMARK  104  A    between atoms: _243  and  _244
REMARK  105  A    between atoms: _246  and  _248
REMARK  106  A    between atoms: _248  and  _249
REMARK  107  A    between atoms: _248  and  _251
REMARK  108  A    between atoms: _251  and  _252
REMARK  109  A    between atoms: _255  and  _257
REMARK  110  A    between atoms: _257  and  _258
REMARK  111  A    between atoms: _261  and  _263
REMARK  112  A    between atoms: _263  and  _264
REMARK  113  A    between atoms: _266  and  _268
REMARK  114  A    between atoms: _268  and  _269
REMARK  115  A    between atoms: _268  and  _271
REMARK  116  A    between atoms: _271  and  _272
REMARK  117  A    between atoms: _272  and  _273
REMARK  118  A    between atoms: _273  and  _274
REMARK  119  A    between atoms: _274  and  _275
REMARK  120  A    between atoms: _279  and  _281
REMARK  121  A    between atoms: _281  and  _282
REMARK  122  A    between atoms: _281  and  _284
REMARK  123  A    between atoms: _284  and  _285
REMARK  124  A    between atoms: _288  and  _290
REMARK  125  A    between atoms: _290  and  _291
REMARK  126  A    between atoms: _290  and  _293
REMARK  127  A    between atoms: _296  and  _298
REMARK  128  A    between atoms: _298  and  _299
REMARK  129  A    between atoms: _298  and  _301
REMARK  130  A    between atoms: _301  and  _302
REMARK  131  A    between atoms: _305  and  _307
REMARK  132  A    between atoms: _307  and  _308
REMARK  133  A    between atoms: _307  and  _310
REMARK  134  A    between atoms: _310  and  _311
REMARK  135  A    between atoms: _314  and  _316
REMARK  136  A    between atoms: _316  and  _317
REMARK  137  A    between atoms: _316  and  _319
REMARK  138  A    between atoms: _319  and  _320
REMARK  139  A    between atoms: _320  and  _321
REMARK  140  A    between atoms: _324  and  _326
REMARK  141  A    between atoms: _326  and  _327
REMARK  142  A    between atoms: _326  and  _329
REMARK  143  A    between atoms: _329  and  _330
REMARK  144  A    between atoms: _333  and  _335
REMARK  145  A    between atoms: _335  and  _336
REMARK  146  A    between atoms: _335  and  _338
REMARK  147  A    between atoms: _341  and  _343
REMARK  148  A    between atoms: _343  and  _344
REMARK  149  A    between atoms: _343  and  _346
REMARK  150  A    between atoms: _346  and  _347
REMARK  151  A    between atoms: _350  and  _352
REMARK  152  A    between atoms: _352  and  _353
REMARK  153  A    between atoms: _352  and  _355
REMARK  154  A    between atoms: _358  and  _360
REMARK  155  A    between atoms: _360  and  _361
REMARK  156  A    between atoms: _360  and  _363
REMARK  157  A    between atoms: _363  and  _364
REMARK  158  A    between atoms: _367  and  _369
REMARK  159  A    between atoms: _369  and  _370
REMARK  160  A    between atoms: _372  and  _374
REMARK  161  A    between atoms: _374  and  _375
REMARK  162  A    between atoms: _374  and  _377
REMARK  163  A    between atoms: _377  and  _378
REMARK  164  A    between atoms: _385  and  _386
REMARK  165  A    between atoms: _391  and  _393
REMARK  166  A    between atoms: _393  and  _394
REMARK  167  A    between atoms: _393  and  _396
REMARK  168  A    between atoms: _396  and  _397
REMARK  169  A    between atoms: _397  and  _398
REMARK  170  A    between atoms: _398  and  _399
REMARK  171  A    between atoms: _408  and  _410
REMARK  172  A    between atoms: _410  and  _411
REMARK  173  A    between atoms: _410  and  _413
REMARK  174  A    between atoms: _413  and  _414
REMARK  175  A    between atoms: _417  and  _419
REMARK  176  A    between atoms: _419  and  _420
REMARK  177  A    between atoms: _419  and  _422
REMARK  178  A    between atoms: _422  and  _423
REMARK  179  A    between atoms: _423  and  _424
REMARK  180  A    between atoms: _429  and  _431
REMARK  181  A    between atoms: _431  and  _432
REMARK  182  A    between atoms: _431  and  _434
REMARK  183  A    between atoms: _434  and  _435
REMARK  184  A    between atoms: _441  and  _443
REMARK  185  A    between atoms: _443  and  _444
REMARK  186  A    between atoms: _443  and  _446
REMARK  187  A    between atoms: _449  and  _451
REMARK  188  A    between atoms: _451  and  _452
REMARK  189  A    between atoms: _451  and  _454
REMARK  190  A    between atoms: _454  and  _455
REMARK  191  A    between atoms: _458  and  _460
REMARK  192  A    between atoms: _460  and  _461
REMARK  193  A    between atoms: _460  and  _463
REMARK  194  A    between atoms: _463  and  _464
REMARK  195  A    between atoms: _467  and  _469
REMARK  196  A    between atoms: _469  and  _470
REMARK  197  A    between atoms: _469  and  _472
REMARK  198  A    between atoms: _475  and  _477
REMARK  199  A    between atoms: _477  and  _478
REMARK  200  A    between atoms: _477  and  _480
REMARK  201  A    between atoms: _480  and  _481
REMARK  202  A    between atoms: _484  and  _486
REMARK  203  A    between atoms: _486  and  _487
REMARK  204  A    between atoms: _486  and  _489
REMARK  205  A    between atoms: _489  and  _490
REMARK  206  A    between atoms: _490  and  _491
REMARK  207  A    between atoms: _491  and  _492
REMARK  208  A    between atoms: _501  and  _503
REMARK  209  A    between atoms: _503  and  _504
REMARK  210  A    between atoms: _503  and  _506
REMARK  211  A    between atoms: _506  and  _507
REMARK  212  A    between atoms: _510  and  _512
REMARK  213  A    between atoms: _512  and  _513
REMARK  214  A    between atoms: _512  and  _515
REMARK  215  A    between atoms: _518  and  _520
REMARK  216  A    between atoms: _520  and  _521
REMARK  217  A    between atoms: _523  and  _525
REMARK  218  A    between atoms: _525  and  _526
REMARK  219  A    between atoms: _525  and  _528
REMARK  220  A    between atoms: _528  and  _529
REMARK  221  A    between atoms: _529  and  _530
REMARK  222  A    between atoms: _530  and  _531
REMARK  223  A    between atoms: _540  and  _542
REMARK  224  A    between atoms: _542  and  _543
REMARK  225  A    between atoms: _542  and  _545
REMARK  226  A    between atoms: _545  and  _546
REMARK  227  A    between atoms: _546  and  _547
REMARK  228  A    between atoms: _547  and  _548
REMARK  229  A    between atoms: _557  and  _559
REMARK  230  A    between atoms: _559  and  _560
REMARK  231  A    between atoms: _559  and  _562
REMARK  232  A    between atoms: _565  and  _567
REMARK  233  A    between atoms: _567  and  _568
REMARK  234  A    between atoms: _570  and  _572
REMARK  235  A    between atoms: _572  and  _573
REMARK  236  A    between atoms: _572  and  _575
REMARK  237  A    between atoms: _575  and  _576
REMARK  238  A    between atoms: _576  and  _577
REMARK  239  A    between atoms: _577  and  _578
REMARK  240  A    between atoms: _587  and  _589
REMARK  241  A    between atoms: _589  and  _590
REMARK  242  A    between atoms: _589  and  _592
REMARK  243  A    between atoms: _595  and  _597
REMARK  244  A    between atoms: _597  and  _598
REMARK  245  A    between atoms: _597  and  _600
REMARK  246  A    between atoms: _600  and  _601
REMARK  247  A    between atoms: _606  and  _607
REMARK  248  A    between atoms: _609  and  _611
REMARK  249  A    between atoms: _611  and  _612
REMARK  250  A    between atoms: _611  and  _614
REMARK  251  A    between atoms: _614  and  _615
REMARK  252  A    between atoms: _620  and  _622
REMARK  253  A    between atoms: _622  and  _623
REMARK  254  A    between atoms: _622  and  _625
REMARK  255  A    between atoms: _628  and  _630
REMARK  256  A    between atoms: _630  and  _631
REMARK  257  A    between atoms: _630  and  _633
REMARK  258  A    between atoms: _633  and  _634
REMARK  259  A    between atoms: _634  and  _635
REMARK  260  A    between atoms: _635  and  _636
REMARK  261  A    between atoms: _636  and  _637
REMARK  262  A    between atoms: _641  and  _643
REMARK  263  A    between atoms: _643  and  _644
REMARK  264  A    between atoms: _643  and  _646
REMARK  265  A    between atoms: _646  and  _647
REMARK  266  A    between atoms: _653  and  _655
REMARK  267  A    between atoms: _655  and  _656
REMARK  268  A    between atoms: _655  and  _658
REMARK  269  A    between atoms: _658  and  _659
REMARK  270  A    between atoms: _665  and  _666
REMARK  271  A    between atoms: _671  and  _673
REMARK  272  A    between atoms: _673  and  _674
REMARK  273  A    between atoms: _673  and  _676
REMARK  274  A    between atoms: _676  and  _677
REMARK  275  A    between atoms: _677  and  _678
REMARK  276  A    between atoms: _678  and  _679
REMARK  277  A    between atoms: _688  and  _690
REMARK  278  A    between atoms: _690  and  _691
REMARK  279  A    between atoms: _690  and  _693
REMARK  280  A    between atoms: _693  and  _694
REMARK  281  A    between atoms: _697  and  _699
REMARK  282  A    between atoms: _699  and  _700
REMARK  283  A    between atoms: _699  and  _702
REMARK  284  A    between atoms: _702  and  _703
REMARK  285  A    between atoms: _706  and  _708
REMARK  286  A    between atoms: _708  and  _709
REMARK  287  A    between atoms: _708  and  _711
REMARK  288  A    between atoms: _711  and  _712
REMARK  289  A    between atoms: _715  and  _717
REMARK  290  A    between atoms: _717  and  _718
REMARK  291  A    between atoms: _717  and  _720
REMARK  292  A    between atoms: _723  and  _725
REMARK  293  A    between atoms: _725  and  _726
REMARK  294  A    between atoms: _725  and  _728
REMARK  295  A    between atoms: _728  and  _729
REMARK  296  A    between atoms: _729  and  _730
REMARK  297  A    between atoms: _730  and  _731
REMARK  298  A    between atoms: _731  and  _732
REMARK  299  A    between atoms: _736  and  _738
REMARK  300  A    between atoms: _738  and  _739
REMARK  301  A    between atoms: _738  and  _741
REMARK  302  A    between atoms: _741  and  _742
REMARK  303  A    between atoms: _742  and  _743
REMARK  304  A    between atoms: _743  and  _744
REMARK  305  A    between atoms: _753  and  _755
REMARK  306  A    between atoms: _755  and  _756
REMARK  307  A    between atoms: _755  and  _758
REMARK  308  A    between atoms: _758  and  _759
REMARK  309  A    between atoms: _762  and  _764
REMARK  310  A    between atoms: _764  and  _765
REMARK  311  A    between atoms: _764  and  _767
REMARK  312  A    between atoms: _767  and  _768
REMARK  313  A    between atoms: _768  and  _769
REMARK  314  A    between atoms: _772  and  _774
REMARK  315  A    between atoms: _774  and  _775
REMARK  316  A    between atoms: _774  and  _777
REMARK  317  A    between atoms: _777  and  _778
REMARK  318  A    between atoms: _788  and  _790
REMARK  319  A    between atoms: _790  and  _791
REMARK  320  A    between atoms: _790  and  _793
REMARK  321  A    between atoms: _793  and  _794
REMARK  322  A    between atoms: _797  and  _799
REMARK  323  A    between atoms: _799  and  _800
REMARK  324  A    between atoms: _799  and  _802
REMARK  325  A    between atoms: _802  and  _803
REMARK  326  A    between atoms: _806  and  _808
REMARK  327  A    between atoms: _808  and  _809
REMARK  328  A    between atoms: _811  and  _813
REMARK  329  A    between atoms: _813  and  _814
REMARK  330  A    between atoms: _813  and  _816
REMARK  331  A    between atoms: _816  and  _817
REMARK  332  A    between atoms: _820  and  _822
REMARK  333  A    between atoms: _822  and  _823
REMARK  334  A    between atoms: _822  and  _825
REMARK  335  A    between atoms: _825  and  _826
REMARK  336  A    between atoms: _826  and  _827
REMARK  337  A    between atoms: _827  and  _828
REMARK  338  A    between atoms: _828  and  _829
REMARK  339  A    between atoms: _834  and  _835
REMARK  340  A    between atoms: _840  and  _842
REMARK  341  A    between atoms: _842  and  _843
REMARK  342  A    between atoms: _842  and  _845
REMARK  343  A    between atoms: _848  and  _850
REMARK  344  A    between atoms: _850  and  _851
REMARK  345  A    between atoms: _854  and  _856
REMARK  346  A    between atoms: _856  and  _857
REMARK  347  A    between atoms: _856  and  _859
REMARK  348  A    between atoms: _859  and  _860
REMARK  349  A    between atoms: _860  and  _861
REMARK  350  A    between atoms: _864  and  _866
REMARK  351  A    between atoms: _866  and  _867
REMARK  352  A    between atoms: _866  and  _869
REMARK  353  A    between atoms: _872  and  _874
REMARK  354  A    between atoms: _874  and  _875
REMARK  355  A    between atoms: _874  and  _877
REMARK  356  A    between atoms: _877  and  _878
REMARK  357  A    between atoms: _878  and  _879
REMARK  358  A    between atoms: _879  and  _880
REMARK                            x       y       z     vdW  Elec       q    Type
REMARK                         _______ _______ _______ _____ _____    ______ ____
ROOT
ATOM      1  O   HOH     1     -15.804   2.533 -30.429  0.00  0.00    +0.000 OA
ENDROOT
TORSDOF 0
REMARK  Name = ../refined-set-2016/4x8o/4x8o_pocket.pdb
REMARK  358 active torsions:
REMARK  status: ('A' for Active; 'I' for Inactive)
REMARK    1  A    between atoms: _1  and  _3
REMARK    2  A    between atoms: _3  and  _4
REMARK    3  A    between atoms: _3  and  _6
REMARK    4  A    between atoms: _6  and  _7
REMARK    5  A    between atoms: _10  and  _12
REMARK    6  A    between atoms: _12  and  _13
REMARK    7  A    between atoms: _12  and  _15
REMARK    8  A    between atoms: _15  and  _16
REMARK    9  A    between atoms: _19  and  _21
REMARK   10  A    between atoms: _21  and  _22
REMARK   11  A    between atoms: _24  and  _26
REMARK   12  A    between atoms: _26  and  _27
REMARK   13  A    between atoms: _31  and  _32
REMARK   14  A    between atoms: _37  and  _39
REMARK   15  A    between atoms: _39  and  _40
REMARK   16  A    between atoms: _42  and  _44
REMARK   17  A    between atoms: _44  and  _45
REMARK   18  A    between atoms: _48  and  _50
REMARK   19  A    between atoms: _50  and  _51
REMARK   20  A    between atoms: _53  and  _55
REMARK   21  A    between atoms: _55  and  _56
REMARK   22  A    between atoms: _55  and  _58
REMARK   23  A    between atoms: _58  and  _59
REMARK   24  A    between atoms: _59  and  _60
REMARK   25  A    between atoms: _60  and  _61
REMARK   26  A    between atoms: _61  and  _62
REMARK   27  A    between atoms: _66  and  _68
REMARK   28  A    between atoms: _68  and  _69
REMARK   29  A    between atoms: _71  and  _73
REMARK   30  A    between atoms: _73  and  _74
REMARK   31  A    between atoms: _73  and  _76
REMARK   32  A    between atoms: _76  and  _77
REMARK   33  A    between atoms: _80  and  _82
REMARK   34  A    between atoms: _82  and  _83
REMARK   35  A    between atoms: _82  and  _85
REMARK   36  A    between atoms: _85  and  _86
REMARK   37  A    between atoms: _86  and  _87
REMARK   38  A    between atoms: _92  and  _94
REMARK   39  A    between atoms: _94  and  _95
REMARK   40  A    between atoms: _98  and  _100
REMARK   41  A    between atoms: _100  and  _101
REMARK   42  A    between atoms: _100  and  _103
REMARK   43  A    between atoms: _103  and  _104
REMARK   44  A    between atoms: _104  and  _105
REMARK   45  A    between atoms: _110  and  _112
REMARK   46  A    between atoms: _112  and  _113
REMARK   47  A    between atoms: _112  and  _115
REMARK   48  A    between atoms: _115  and  _116
REMARK   49  A    between atoms: _122  and  _124
REMARK   50  A    between atoms: _124  and  _125
REMARK   51  A    between atoms: _124  and  _127
REMARK   52  A    between atoms: _127  and  _128
REMARK   53  A    between atoms: _128  and  _129
REMARK   54  A    between atoms: _134  and  _136
REMARK   55  A    between atoms: _136  and  _137
REMARK   56  A    between atoms: _136  and  _139
REMARK   57  A    between atoms: _139  and  _140
REMARK   58  A    between atoms: _142  and  _144
REMARK   59  A    between atoms: _144  and  _145
REMARK   60  A    between atoms: _144  and  _147
REMARK   61  A    between atoms: _147  and  _148
REMARK   62  A    between atoms: _151  and  _153
REMARK   63  A    between atoms: _153  and  _154
REMARK   64  A    between atoms: _156  and  _158
REMARK   65  A    between atoms: _158  and  _159
REMARK   66  A    between atoms: _158  and  _161
REMARK   67  A    between atoms: _161  and  _162
REMARK   68  A    between atoms: _165  and  _167
REMARK   69  A    between atoms: _167  and  _168
REMARK   70  A    between atoms: _167  and  _170
REMARK   71  A    between atoms: _170  and  _171
REMARK   72  A    between atoms: _171  and  _172
REMARK   73  A    between atoms: _174  and  _176
REMARK   74  A    between atoms: _176  and  _177
REMARK   75  A    between atoms: _176  and  _179
REMARK   76  A    between atoms: _179  and  _180
REMARK   77  A    between atoms: _183  and  _185
REMARK   78  A    between atoms: _185  and  _186
REMARK   79  A    between atoms: _185  and  _188
REMARK   80  A    between atoms: _188  and  _189
REMARK   81  A    between atoms: _189  and  _190
REMARK   82  A    between atoms: _190  and  _191
REMARK   83  A    between atoms: _200  and  _202
REMARK   84  A    between atoms: _202  and  _203
REMARK   85  A    between atoms: _206  and  _208
REMARK   86  A    between atoms: _208  and  _209
REMARK   87  A    between atoms: _208  and  _211
REMARK   88  A    between atoms: _211  and  _212
REMARK   89  A    between atoms: _212  and  _213
REMARK   90  A    between atoms: _213  and  _214
REMARK   91  A    between atoms: _214  and  _215
REMARK   92  A    between atoms: _219  and  _221
REMARK   93  A    between atoms: _221  and  _222
REMARK   94  A    between atoms: _221  and  _224
REMARK   95  A    between atoms: _224  and  _225
REMARK   96  A    between atoms: _228  and  _230
REMARK   97  A    between atoms: _230  and  _231
REMARK   98  A    between atoms: _230  and  _233
REMARK   99  A    between atoms: _233  and  _234
REMARK  100  A    between atoms: _237  and  _239
REMARK  101  A    between atoms: _239  and  _240
REMARK  102  A    between atoms: _239  and  _242
REMARK  103  A    between atoms: _242  and  _243
REMARK  104  A    between atoms: _243  and  _244
REMARK  105  A    between atoms: _246  and  _248
REMARK  106  A    between atoms: _248  and  _249
REMARK  107  A    between atoms: _248  and  _251
REMARK  108  A    between atoms: _251  and  _252
REMARK  109  A    between atoms: _255  and  _257
REMARK  110  A    between atoms: _257  and  _258
REMARK  111  A    between atoms: _261  and  _263
REMARK  112  A    between atoms: _263  and  _264
REMARK  113  A    between atoms: _266  and  _268
REMARK  114  A    between atoms: _268  and  _269
REMARK  115  A    between atoms: _268  and  _271
REMARK  116  A    between atoms: _271  and  _272
REMARK  117  A    between atoms: _272  and  _273
REMARK  118  A    between atoms: _273  and  _274
REMARK  119  A    between atoms: _274  and  _275
REMARK  120  A    between atoms: _279  and  _281
REMARK  121  A    between atoms: _281  and  _282
REMARK  122  A    between atoms: _281  and  _284
REMARK  123  A    between atoms: _284  and  _285
REMARK  124  A    between atoms: _288  and  _290
REMARK  125  A    between atoms: _290  and  _291
REMARK  126  A    between atoms: _290  and  _293
REMARK  127  A    between atoms: _296  and  _298
REMARK  128  A    between atoms: _298  and  _299
REMARK  129  A    between atoms: _298  and  _301
REMARK  130  A    between atoms: _301  and  _302
REMARK  131  A    between atoms: _305  and  _307
REMARK  132  A    between atoms: _307  and  _308
REMARK  133  A    between atoms: _307  and  _310
REMARK  134  A    between atoms: _310  and  _311
REMARK  135  A    between atoms: _314  and  _316
REMARK  136  A    between atoms: _316  and  _317
REMARK  137  A    between atoms: _316  and  _319
REMARK  138  A    between atoms: _319  and  _320
REMARK  139  A    between atoms: _320  and  _321
REMARK  140  A    between atoms: _324  and  _326
REMARK  141  A    between atoms: _326  and  _327
REMARK  142  A    between atoms: _326  and  _329
REMARK  143  A    between atoms: _329  and  _330
REMARK  144  A    between atoms: _333  and  _335
REMARK  145  A    between atoms: _335  and  _336
REMARK  146  A    between atoms: _335  and  _338
REMARK  147  A    between atoms: _341  and  _343
REMARK  148  A    between atoms: _343  and  _344
REMARK  149  A    between atoms: _343  and  _346
REMARK  150  A    between atoms: _346  and  _347
REMARK  151  A    between atoms: _350  and  _352
REMARK  152  A    between atoms: _352  and  _353
REMARK  153  A    between atoms: _352  and  _355
REMARK  154  A    between atoms: _358  and  _360
REMARK  155  A    between atoms: _360  and  _361
REMARK  156  A    between atoms: _360  and  _363
REMARK  157  A    between atoms: _363  and  _364
REMARK  158  A    between atoms: _367  and  _369
REMARK  159  A    between atoms: _369  and  _370
REMARK  160  A    between atoms: _372  and  _374
REMARK  161  A    between atoms: _374  and  _375
REMARK  162  A    between atoms: _374  and  _377
REMARK  163  A    between atoms: _377  and  _378
REMARK  164  A    between atoms: _385  and  _386
REMARK  165  A    between atoms: _391  and  _393
REMARK  166  A    between atoms: _393  and  _394
REMARK  167  A    between atoms: _393  and  _396
REMARK  168  A    between atoms: _396  and  _397
REMARK  169  A    between atoms: _397  and  _398
REMARK  170  A    between atoms: _398  and  _399
REMARK  171  A    between atoms: _408  and  _410
REMARK  172  A    between atoms: _410  and  _411
REMARK  173  A    between atoms: _410  and  _413
REMARK  174  A    between atoms: _413  and  _414
REMARK  175  A    between atoms: _417  and  _419
REMARK  176  A    between atoms: _419  and  _420
REMARK  177  A    between atoms: _419  and  _422
REMARK  178  A    between atoms: _422  and  _423
REMARK  179  A    between atoms: _423  and  _424
REMARK  180  A    between atoms: _429  and  _431
REMARK  181  A    between atoms: _431  and  _432
REMARK  182  A    between atoms: _431  and  _434
REMARK  183  A    between atoms: _434  and  _435
REMARK  184  A    between atoms: _441  and  _443
REMARK  185  A    between atoms: _443  and  _444
REMARK  186  A    between atoms: _443  and  _446
REMARK  187  A    between atoms: _449  and  _451
REMARK  188  A    between atoms: _451  and  _452
REMARK  189  A    between atoms: _451  and  _454
REMARK  190  A    between atoms: _454  and  _455
REMARK  191  A    between atoms: _458  and  _460
REMARK  192  A    between atoms: _460  and  _461
REMARK  193  A    between atoms: _460  and  _463
REMARK  194  A    between atoms: _463  and  _464
REMARK  195  A    between atoms: _467  and  _469
REMARK  196  A    between atoms: _469  and  _470
REMARK  197  A    between atoms: _469  and  _472
REMARK  198  A    between atoms: _475  and  _477
REMARK  199  A    between atoms: _477  and  _478
REMARK  200  A    between atoms: _477  and  _480
REMARK  201  A    between atoms: _480  and  _481
REMARK  202  A    between atoms: _484  and  _486
REMARK  203  A    between atoms: _486  and  _487
REMARK  204  A    between atoms: _486  and  _489
REMARK  205  A    between atoms: _489  and  _490
REMARK  206  A    between atoms: _490  and  _491
REMARK  207  A    between atoms: _491  and  _492
REMARK  208  A    between atoms: _501  and  _503
REMARK  209  A    between atoms: _503  and  _504
REMARK  210  A    between atoms: _503  and  _506
REMARK  211  A    between atoms: _506  and  _507
REMARK  212  A    between atoms: _510  and  _512
REMARK  213  A    between atoms: _512  and  _513
REMARK  214  A    between atoms: _512  and  _515
REMARK  215  A    between atoms: _518  and  _520
REMARK  216  A    between atoms: _520  and  _521
REMARK  217  A    between atoms: _523  and  _525
REMARK  218  A    between atoms: _525  and  _526
REMARK  219  A    between atoms: _525  and  _528
REMARK  220  A    between atoms: _528  and  _529
REMARK  221  A    between atoms: _529  and  _530
REMARK  222  A    between atoms: _530  and  _531
REMARK  223  A    between atoms: _540  and  _542
REMARK  224  A    between atoms: _542  and  _543
REMARK  225  A    between atoms: _542  and  _545
REMARK  226  A    between atoms: _545  and  _546
REMARK  227  A    between atoms: _546  and  _547
REMARK  228  A    between atoms: _547  and  _548
REMARK  229  A    between atoms: _557  and  _559
REMARK  230  A    between atoms: _559  and  _560
REMARK  231  A    between atoms: _559  and  _562
REMARK  232  A    between atoms: _565  and  _567
REMARK  233  A    between atoms: _567  and  _568
REMARK  234  A    between atoms: _570  and  _572
REMARK  235  A    between atoms: _572  and  _573
REMARK  236  A    between atoms: _572  and  _575
REMARK  237  A    between atoms: _575  and  _576
REMARK  238  A    between atoms: _576  and  _577
REMARK  239  A    between atoms: _577  and  _578
REMARK  240  A    between atoms: _587  and  _589
REMARK  241  A    between atoms: _589  and  _590
REMARK  242  A    between atoms: _589  and  _592
REMARK  243  A    between atoms: _595  and  _597
REMARK  244  A    between atoms: _597  and  _598
REMARK  245  A    between atoms: _597  and  _600
REMARK  246  A    between atoms: _600  and  _601
REMARK  247  A    between atoms: _606  and  _607
REMARK  248  A    between atoms: _609  and  _611
REMARK  249  A    between atoms: _611  and  _612
REMARK  250  A    between atoms: _611  and  _614
REMARK  251  A    between atoms: _614  and  _615
REMARK  252  A    between atoms: _620  and  _622
REMARK  253  A    between atoms: _622  and  _623
REMARK  254  A    between atoms: _622  and  _625
REMARK  255  A    between atoms: _628  and  _630
REMARK  256  A    between atoms: _630  and  _631
REMARK  257  A    between atoms: _630  and  _633
REMARK  258  A    between atoms: _633  and  _634
REMARK  259  A    between atoms: _634  and  _635
REMARK  260  A    between atoms: _635  and  _636
REMARK  261  A    between atoms: _636  and  _637
REMARK  262  A    between atoms: _641  and  _643
REMARK  263  A    between atoms: _643  and  _644
REMARK  264  A    between atoms: _643  and  _646
REMARK  265  A    between atoms: _646  and  _647
REMARK  266  A    between atoms: _653  and  _655
REMARK  267  A    between atoms: _655  and  _656
REMARK  268  A    between atoms: _655  and  _658
REMARK  269  A    between atoms: _658  and  _659
REMARK  270  A    between atoms: _665  and  _666
REMARK  271  A    between atoms: _671  and  _673
REMARK  272  A    between atoms: _673  and  _674
REMARK  273  A    between atoms: _673  and  _676
REMARK  274  A    between atoms: _676  and  _677
REMARK  275  A    between atoms: _677  and  _678
REMARK  276  A    between atoms: _678  and  _679
REMARK  277  A    between atoms: _688  and  _690
REMARK  278  A    between atoms: _690  and  _691
REMARK  279  A    between atoms: _690  and  _693
REMARK  280  A    between atoms: _693  and  _694
REMARK  281  A    between atoms: _697  and  _699
REMARK  282  A    between atoms: _699  and  _700
REMARK  283  A    between atoms: _699  and  _702
REMARK  284  A    between atoms: _702  and  _703
REMARK  285  A    between atoms: _706  and  _708
REMARK  286  A    between atoms: _708  and  _709
REMARK  287  A    between atoms: _708  and  _711
REMARK  288  A    between atoms: _711  and  _712
REMARK  289  A    between atoms: _715  and  _717
REMARK  290  A    between atoms: _717  and  _718
REMARK  291  A    between atoms: _717  and  _720
REMARK  292  A    between atoms: _723  and  _725
REMARK  293  A    between atoms: _725  and  _726
REMARK  294  A    between atoms: _725  and  _728
REMARK  295  A    between atoms: _728  and  _729
REMARK  296  A    between atoms: _729  and  _730
REMARK  297  A    between atoms: _730  and  _731
REMARK  298  A    between atoms: _731  and  _732
REMARK  299  A    between atoms: _736  and  _738
REMARK  300  A    between atoms: _738  and  _739
REMARK  301  A    between atoms: _738  and  _741
REMARK  302  A    between atoms: _741  and  _742
REMARK  303  A    between atoms: _742  and  _743
REMARK  304  A    between atoms: _743  and  _744
REMARK  305  A    between atoms: _753  and  _755
REMARK  306  A    between atoms: _755  and  _756
REMARK  307  A    between atoms: _755  and  _758
REMARK  308  A    between atoms: _758  and  _759
REMARK  309  A    between atoms: _762  and  _764
REMARK  310  A    between atoms: _764  and  _765
REMARK  311  A    between atoms: _764  and  _767
REMARK  312  A    between atoms: _767  and  _768
REMARK  313  A    between atoms: _768  and  _769
REMARK  314  A    between atoms: _772  and  _774
REMARK  315  A    between atoms: _774  and  _775
REMARK  316  A    between atoms: _774  and  _777
REMARK  317  A    between atoms: _777  and  _778
REMARK  318  A    between atoms: _788  and  _790
REMARK  319  A    between atoms: _790  and  _791
REMARK  320  A    between atoms: _790  and  _793
REMARK  321  A    between atoms: _793  and  _794
REMARK  322  A    between atoms: _797  and  _799
REMARK  323  A    between atoms: _799  and  _800
REMARK  324  A    between atoms: _799  and  _802
REMARK  325  A    between atoms: _802  and  _803
REMARK  326  A    between atoms: _806  and  _808
REMARK  327  A    between atoms: _808  and  _809
REMARK  328  A    between atoms: _811  and  _813
REMARK  329  A    between atoms: _813  and  _814
REMARK  330  A    between atoms: _813  and  _816
REMARK  331  A    between atoms: _816  and  _817
REMARK  332  A    between atoms: _820  and  _822
REMARK  333  A    between atoms: _822  and  _823
REMARK  334  A    between atoms: _822  and  _825
REMARK  335  A    between atoms: _825  and  _826
REMARK  336  A    between atoms: _826  and  _827
REMARK  337  A    between atoms: _827  and  _828
REMARK  338  A    between atoms: _828  and  _829
REMARK  339  A    between atoms: _834  and  _835
REMARK  340  A    between atoms: _840  and  _842
REMARK  341  A    between atoms: _842  and  _843
REMARK  342  A    between atoms: _842  and  _845
REMARK  343  A    between atoms: _848  and  _850
REMARK  344  A    between atoms: _850  and  _851
REMARK  345  A    between atoms: _854  and  _856
REMARK  346  A    between atoms: _856  and  _857
REMARK  347  A    between atoms: _856  and  _859
REMARK  348  A    between atoms: _859  and  _860
REMARK  349  A    between atoms: _860  and  _861
REMARK  350  A    between atoms: _864  and  _866
REMARK  351  A    between atoms: _866  and  _867
REMARK  352  A    between atoms: _866  and  _869
REMARK  353  A    between atoms: _872  and  _874
REMARK  354  A    between atoms: _874  and  _875
REMARK  355  A    between atoms: _874  and  _877
REMARK  356  A    between atoms: _877  and  _878
REMARK  357  A    between atoms: _878  and  _879
REMARK  358  A    between atoms: _879  and  _880
REMARK                            x       y       z     vdW  Elec       q    Type
REMARK                         _______ _______ _______ _____ _____    ______ ____
ROOT
ATOM      1  O   HOH     1     -13.500  21.770 -41.472  0.00  0.00    +0.000 OA
ENDROOT
TORSDOF 0
REMARK  Name = ../refined-set-2016/4x8o/4x8o_pocket.pdb
REMARK  358 active torsions:
REMARK  status: ('A' for Active; 'I' for Inactive)
REMARK    1  A    between atoms: _1  and  _3
REMARK    2  A    between atoms: _3  and  _4
REMARK    3  A    between atoms: _3  and  _6
REMARK    4  A    between atoms: _6  and  _7
REMARK    5  A    between atoms: _10  and  _12
REMARK    6  A    between atoms: _12  and  _13
REMARK    7  A    between atoms: _12  and  _15
REMARK    8  A    between atoms: _15  and  _16
REMARK    9  A    between atoms: _19  and  _21
REMARK   10  A    between atoms: _21  and  _22
REMARK   11  A    between atoms: _24  and  _26
REMARK   12  A    between atoms: _26  and  _27
REMARK   13  A    between atoms: _31  and  _32
REMARK   14  A    between atoms: _37  and  _39
REMARK   15  A    between atoms: _39  and  _40
REMARK   16  A    between atoms: _42  and  _44
REMARK   17  A    between atoms: _44  and  _45
REMARK   18  A    between atoms: _48  and  _50
REMARK   19  A    between atoms: _50  and  _51
REMARK   20  A    between atoms: _53  and  _55
REMARK   21  A    between atoms: _55  and  _56
REMARK   22  A    between atoms: _55  and  _58
REMARK   23  A    between atoms: _58  and  _59
REMARK   24  A    between atoms: _59  and  _60
REMARK   25  A    between atoms: _60  and  _61
REMARK   26  A    between atoms: _61  and  _62
REMARK   27  A    between atoms: _66  and  _68
REMARK   28  A    between atoms: _68  and  _69
REMARK   29  A    between atoms: _71  and  _73
REMARK   30  A    between atoms: _73  and  _74
REMARK   31  A    between atoms: _73  and  _76
REMARK   32  A    between atoms: _76  and  _77
REMARK   33  A    between atoms: _80  and  _82
REMARK   34  A    between atoms: _82  and  _83
REMARK   35  A    between atoms: _82  and  _85
REMARK   36  A    between atoms: _85  and  _86
REMARK   37  A    between atoms: _86  and  _87
REMARK   38  A    between atoms: _92  and  _94
REMARK   39  A    between atoms: _94  and  _95
REMARK   40  A    between atoms: _98  and  _100
REMARK   41  A    between atoms: _100  and  _101
REMARK   42  A    between atoms: _100  and  _103
REMARK   43  A    between atoms: _103  and  _104
REMARK   44  A    between atoms: _104  and  _105
REMARK   45  A    between atoms: _110  and  _112
REMARK   46  A    between atoms: _112  and  _113
REMARK   47  A    between atoms: _112  and  _115
REMARK   48  A    between atoms: _115  and  _116
REMARK   49  A    between atoms: _122  and  _124
REMARK   50  A    between atoms: _124  and  _125
REMARK   51  A    between atoms: _124  and  _127
REMARK   52  A    between atoms: _127  and  _128
REMARK   53  A    between atoms: _128  and  _129
REMARK   54  A    between atoms: _134  and  _136
REMARK   55  A    between atoms: _136  and  _137
REMARK   56  A    between atoms: _136  and  _139
REMARK   57  A    between atoms: _139  and  _140
REMARK   58  A    between atoms: _142  and  _144
REMARK   59  A    between atoms: _144  and  _145
REMARK   60  A    between atoms: _144  and  _147
REMARK   61  A    between atoms: _147  and  _148
REMARK   62  A    between atoms: _151  and  _153
REMARK   63  A    between atoms: _153  and  _154
REMARK   64  A    between atoms: _156  and  _158
REMARK   65  A    between atoms: _158  and  _159
REMARK   66  A    between atoms: _158  and  _161
REMARK   67  A    between atoms: _161  and  _162
REMARK   68  A    between atoms: _165  and  _167
REMARK   69  A    between atoms: _167  and  _168
REMARK   70  A    between atoms: _167  and  _170
REMARK   71  A    between atoms: _170  and  _171
REMARK   72  A    between atoms: _171  and  _172
REMARK   73  A    between atoms: _174  and  _176
REMARK   74  A    between atoms: _176  and  _177
REMARK   75  A    between atoms: _176  and  _179
REMARK   76  A    between atoms: _179  and  _180
REMARK   77  A    between atoms: _183  and  _185
REMARK   78  A    between atoms: _185  and  _186
REMARK   79  A    between atoms: _185  and  _188
REMARK   80  A    between atoms: _188  and  _189
REMARK   81  A    between atoms: _189  and  _190
REMARK   82  A    between atoms: _190  and  _191
REMARK   83  A    between atoms: _200  and  _202
REMARK   84  A    between atoms: _202  and  _203
REMARK   85  A    between atoms: _206  and  _208
REMARK   86  A    between atoms: _208  and  _209
REMARK   87  A    between atoms: _208  and  _211
REMARK   88  A    between atoms: _211  and  _212
REMARK   89  A    between atoms: _212  and  _213
REMARK   90  A    between atoms: _213  and  _214
REMARK   91  A    between atoms: _214  and  _215
REMARK   92  A    between atoms: _219  and  _221
REMARK   93  A    between atoms: _221  and  _222
REMARK   94  A    between atoms: _221  and  _224
REMARK   95  A    between atoms: _224  and  _225
REMARK   96  A    between atoms: _228  and  _230
REMARK   97  A    between atoms: _230  and  _231
REMARK   98  A    between atoms: _230  and  _233
REMARK   99  A    between atoms: _233  and  _234
REMARK  100  A    between atoms: _237  and  _239
REMARK  101  A    between atoms: _239  and  _240
REMARK  102  A    between atoms: _239  and  _242
REMARK  103  A    between atoms: _242  and  _243
REMARK  104  A    between atoms: _243  and  _244
REMARK  105  A    between atoms: _246  and  _248
REMARK  106  A    between atoms: _248  and  _249
REMARK  107  A    between atoms: _248  and  _251
REMARK  108  A    between atoms: _251  and  _252
REMARK  109  A    between atoms: _255  and  _257
REMARK  110  A    between atoms: _257  and  _258
REMARK  111  A    between atoms: _261  and  _263
REMARK  112  A    between atoms: _263  and  _264
REMARK  113  A    between atoms: _266  and  _268
REMARK  114  A    between atoms: _268  and  _269
REMARK  115  A    between atoms: _268  and  _271
REMARK  116  A    between atoms: _271  and  _272
REMARK  117  A    between atoms: _272  and  _273
REMARK  118  A    between atoms: _273  and  _274
REMARK  119  A    between atoms: _274  and  _275
REMARK  120  A    between atoms: _279  and  _281
REMARK  121  A    between atoms: _281  and  _282
REMARK  122  A    between atoms: _281  and  _284
REMARK  123  A    between atoms: _284  and  _285
REMARK  124  A    between atoms: _288  and  _290
REMARK  125  A    between atoms: _290  and  _291
REMARK  126  A    between atoms: _290  and  _293
REMARK  127  A    between atoms: _296  and  _298
REMARK  128  A    between atoms: _298  and  _299
REMARK  129  A    between atoms: _298  and  _301
REMARK  130  A    between atoms: _301  and  _302
REMARK  131  A    between atoms: _305  and  _307
REMARK  132  A    between atoms: _307  and  _308
REMARK  133  A    between atoms: _307  and  _310
REMARK  134  A    between atoms: _310  and  _311
REMARK  135  A    between atoms: _314  and  _316
REMARK  136  A    between atoms: _316  and  _317
REMARK  137  A    between atoms: _316  and  _319
REMARK  138  A    between atoms: _319  and  _320
REMARK  139  A    between atoms: _320  and  _321
REMARK  140  A    between atoms: _324  and  _326
REMARK  141  A    between atoms: _326  and  _327
REMARK  142  A    between atoms: _326  and  _329
REMARK  143  A    between atoms: _329  and  _330
REMARK  144  A    between atoms: _333  and  _335
REMARK  145  A    between atoms: _335  and  _336
REMARK  146  A    between atoms: _335  and  _338
REMARK  147  A    between atoms: _341  and  _343
REMARK  148  A    between atoms: _343  and  _344
REMARK  149  A    between atoms: _343  and  _346
REMARK  150  A    between atoms: _346  and  _347
REMARK  151  A    between atoms: _350  and  _352
REMARK  152  A    between atoms: _352  and  _353
REMARK  153  A    between atoms: _352  and  _355
REMARK  154  A    between atoms: _358  and  _360
REMARK  155  A    between atoms: _360  and  _361
REMARK  156  A    between atoms: _360  and  _363
REMARK  157  A    between atoms: _363  and  _364
REMARK  158  A    between atoms: _367  and  _369
REMARK  159  A    between atoms: _369  and  _370
REMARK  160  A    between atoms: _372  and  _374
REMARK  161  A    between atoms: _374  and  _375
REMARK  162  A    between atoms: _374  and  _377
REMARK  163  A    between atoms: _377  and  _378
REMARK  164  A    between atoms: _385  and  _386
REMARK  165  A    between atoms: _391  and  _393
REMARK  166  A    between atoms: _393  and  _394
REMARK  167  A    between atoms: _393  and  _396
REMARK  168  A    between atoms: _396  and  _397
REMARK  169  A    between atoms: _397  and  _398
REMARK  170  A    between atoms: _398  and  _399
REMARK  171  A    between atoms: _408  and  _410
REMARK  172  A    between atoms: _410  and  _411
REMARK  173  A    between atoms: _410  and  _413
REMARK  174  A    between atoms: _413  and  _414
REMARK  175  A    between atoms: _417  and  _419
REMARK  176  A    between atoms: _419  and  _420
REMARK  177  A    between atoms: _419  and  _422
REMARK  178  A    between atoms: _422  and  _423
REMARK  179  A    between atoms: _423  and  _424
REMARK  180  A    between atoms: _429  and  _431
REMARK  181  A    between atoms: _431  and  _432
REMARK  182  A    between atoms: _431  and  _434
REMARK  183  A    between atoms: _434  and  _435
REMARK  184  A    between atoms: _441  and  _443
REMARK  185  A    between atoms: _443  and  _444
REMARK  186  A    between atoms: _443  and  _446
REMARK  187  A    between atoms: _449  and  _451
REMARK  188  A    between atoms: _451  and  _452
REMARK  189  A    between atoms: _451  and  _454
REMARK  190  A    between atoms: _454  and  _455
REMARK  191  A    between atoms: _458  and  _460
REMARK  192  A    between atoms: _460  and  _461
REMARK  193  A    between atoms: _460  and  _463
REMARK  194  A    between atoms: _463  and  _464
REMARK  195  A    between atoms: _467  and  _469
REMARK  196  A    between atoms: _469  and  _470
REMARK  197  A    between atoms: _469  and  _472
REMARK  198  A    between atoms: _475  and  _477
REMARK  199  A    between atoms: _477  and  _478
REMARK  200  A    between atoms: _477  and  _480
REMARK  201  A    between atoms: _480  and  _481
REMARK  202  A    between atoms: _484  and  _486
REMARK  203  A    between atoms: _486  and  _487
REMARK  204  A    between atoms: _486  and  _489
REMARK  205  A    between atoms: _489  and  _490
REMARK  206  A    between atoms: _490  and  _491
REMARK  207  A    between atoms: _491  and  _492
REMARK  208  A    between atoms: _501  and  _503
REMARK  209  A    between atoms: _503  and  _504
REMARK  210  A    between atoms: _503  and  _506
REMARK  211  A    between atoms: _506  and  _507
REMARK  212  A    between atoms: _510  and  _512
REMARK  213  A    between atoms: _512  and  _513
REMARK  214  A    between atoms: _512  and  _515
REMARK  215  A    between atoms: _518  and  _520
REMARK  216  A    between atoms: _520  and  _521
REMARK  217  A    between atoms: _523  and  _525
REMARK  218  A    between atoms: _525  and  _526
REMARK  219  A    between atoms: _525  and  _528
REMARK  220  A    between atoms: _528  and  _529
REMARK  221  A    between atoms: _529  and  _530
REMARK  222  A    between atoms: _530  and  _531
REMARK  223  A    between atoms: _540  and  _542
REMARK  224  A    between atoms: _542  and  _543
REMARK  225  A    between atoms: _542  and  _545
REMARK  226  A    between atoms: _545  and  _546
REMARK  227  A    between atoms: _546  and  _547
REMARK  228  A    between atoms: _547  and  _548
REMARK  229  A    between atoms: _557  and  _559
REMARK  230  A    between atoms: _559  and  _560
REMARK  231  A    between atoms: _559  and  _562
REMARK  232  A    between atoms: _565  and  _567
REMARK  233  A    between atoms: _567  and  _568
REMARK  234  A    between atoms: _570  and  _572
REMARK  235  A    between atoms: _572  and  _573
REMARK  236  A    between atoms: _572  and  _575
REMARK  237  A    between atoms: _575  and  _576
REMARK  238  A    between atoms: _576  and  _577
REMARK  239  A    between atoms: _577  and  _578
REMARK  240  A    between atoms: _587  and  _589
REMARK  241  A    between atoms: _589  and  _590
REMARK  242  A    between atoms: _589  and  _592
REMARK  243  A    between atoms: _595  and  _597
REMARK  244  A    between atoms: _597  and  _598
REMARK  245  A    between atoms: _597  and  _600
REMARK  246  A    between atoms: _600  and  _601
REMARK  247  A    between atoms: _606  and  _607
REMARK  248  A    between atoms: _609  and  _611
REMARK  249  A    between atoms: _611  and  _612
REMARK  250  A    between atoms: _611  and  _614
REMARK  251  A    between atoms: _614  and  _615
REMARK  252  A    between atoms: _620  and  _622
REMARK  253  A    between atoms: _622  and  _623
REMARK  254  A    between atoms: _622  and  _625
REMARK  255  A    between atoms: _628  and  _630
REMARK  256  A    between atoms: _630  and  _631
REMARK  257  A    between atoms: _630  and  _633
REMARK  258  A    between atoms: _633  and  _634
REMARK  259  A    between atoms: _634  and  _635
REMARK  260  A    between atoms: _635  and  _636
REMARK  261  A    between atoms: _636  and  _637
REMARK  262  A    between atoms: _641  and  _643
REMARK  263  A    between atoms: _643  and  _644
REMARK  264  A    between atoms: _643  and  _646
REMARK  265  A    between atoms: _646  and  _647
REMARK  266  A    between atoms: _653  and  _655
REMARK  267  A    between atoms: _655  and  _656
REMARK  268  A    between atoms: _655  and  _658
REMARK  269  A    between atoms: _658  and  _659
REMARK  270  A    between atoms: _665  and  _666
REMARK  271  A    between atoms: _671  and  _673
REMARK  272  A    between atoms: _673  and  _674
REMARK  273  A    between atoms: _673  and  _676
REMARK  274  A    between atoms: _676  and  _677
REMARK  275  A    between atoms: _677  and  _678
REMARK  276  A    between atoms: _678  and  _679
REMARK  277  A    between atoms: _688  and  _690
REMARK  278  A    between atoms: _690  and  _691
REMARK  279  A    between atoms: _690  and  _693
REMARK  280  A    between atoms: _693  and  _694
REMARK  281  A    between atoms: _697  and  _699
REMARK  282  A    between atoms: _699  and  _700
REMARK  283  A    between atoms: _699  and  _702
REMARK  284  A    between atoms: _702  and  _703
REMARK  285  A    between atoms: _706  and  _708
REMARK  286  A    between atoms: _708  and  _709
REMARK  287  A    between atoms: _708  and  _711
REMARK  288  A    between atoms: _711  and  _712
REMARK  289  A    between atoms: _715  and  _717
REMARK  290  A    between atoms: _717  and  _718
REMARK  291  A    between atoms: _717  and  _720
REMARK  292  A    between atoms: _723  and  _725
REMARK  293  A    between atoms: _725  and  _726
REMARK  294  A    between atoms: _725  and  _728
REMARK  295  A    between atoms: _728  and  _729
REMARK  296  A    between atoms: _729  and  _730
REMARK  297  A    between atoms: _730  and  _731
REMARK  298  A    between atoms: _731  and  _732
REMARK  299  A    between atoms: _736  and  _738
REMARK  300  A    between atoms: _738  and  _739
REMARK  301  A    between atoms: _738  and  _741
REMARK  302  A    between atoms: _741  and  _742
REMARK  303  A    between atoms: _742  and  _743
REMARK  304  A    between atoms: _743  and  _744
REMARK  305  A    between atoms: _753  and  _755
REMARK  306  A    between atoms: _755  and  _756
REMARK  307  A    between atoms: _755  and  _758
REMARK  308  A    between atoms: _758  and  _759
REMARK  309  A    between atoms: _762  and  _764
REMARK  310  A    between atoms: _764  and  _765
REMARK  311  A    between atoms: _764  and  _767
REMARK  312  A    between atoms: _767  and  _768
REMARK  313  A    between atoms: _768  and  _769
REMARK  314  A    between atoms: _772  and  _774
REMARK  315  A    between atoms: _774  and  _775
REMARK  316  A    between atoms: _774  and  _777
REMARK  317  A    between atoms: _777  and  _778
REMARK  318  A    between atoms: _788  and  _790
REMARK  319  A    between atoms: _790  and  _791
REMARK  320  A    between atoms: _790  and  _793
REMARK  321  A    between atoms: _793  and  _794
REMARK  322  A    between atoms: _797  and  _799
REMARK  323  A    between atoms: _799  and  _800
REMARK  324  A    between atoms: _799  and  _802
REMARK  325  A    between atoms: _802  and  _803
REMARK  326  A    between atoms: _806  and  _808
REMARK  327  A    between atoms: _808  and  _809
REMARK  328  A    between atoms: _811  and  _813
REMARK  329  A    between atoms: _813  and  _814
REMARK  330  A    between atoms: _813  and  _816
REMARK  331  A    between atoms: _816  and  _817
REMARK  332  A    between atoms: _820  and  _822
REMARK  333  A    between atoms: _822  and  _823
REMARK  334  A    between atoms: _822  and  _825
REMARK  335  A    between atoms: _825  and  _826
REMARK  336  A    between atoms: _826  and  _827
REMARK  337  A    between atoms: _827  and  _828
REMARK  338  A    between atoms: _828  and  _829
REMARK  339  A    between atoms: _834  and  _835
REMARK  340  A    between atoms: _840  and  _842
REMARK  341  A    between atoms: _842  and  _843
REMARK  342  A    between atoms: _842  and  _845
REMARK  343  A    between atoms: _848  and  _850
REMARK  344  A    between atoms: _850  and  _851
REMARK  345  A    between atoms: _854  and  _856
REMARK  346  A    between atoms: _856  and  _857
REMARK  347  A    between atoms: _856  and  _859
REMARK  348  A    between atoms: _859  and  _860
REMARK  349  A    between atoms: _860  and  _861
REMARK  350  A    between atoms: _864  and  _866
REMARK  351  A    between atoms: _866  and  _867
REMARK  352  A    between atoms: _866  and  _869
REMARK  353  A    between atoms: _872  and  _874
REMARK  354  A    between atoms: _874  and  _875
REMARK  355  A    between atoms: _874  and  _877
REMARK  356  A    between atoms: _877  and  _878
REMARK  357  A    between atoms: _878  and  _879
REMARK  358  A    between atoms: _879  and  _880
REMARK                            x       y       z     vdW  Elec       q    Type
REMARK                         _______ _______ _______ _____ _____    ______ ____
ROOT
ATOM      1  O   HOH     1     -16.830  19.637 -29.410  0.00  0.00    +0.000 OA
ENDROOT
TORSDOF 0
REMARK  Name = ../refined-set-2016/4x8o/4x8o_pocket.pdb
REMARK  358 active torsions:
REMARK  status: ('A' for Active; 'I' for Inactive)
REMARK    1  A    between atoms: _1  and  _3
REMARK    2  A    between atoms: _3  and  _4
REMARK    3  A    between atoms: _3  and  _6
REMARK    4  A    between atoms: _6  and  _7
REMARK    5  A    between atoms: _10  and  _12
REMARK    6  A    between atoms: _12  and  _13
REMARK    7  A    between atoms: _12  and  _15
REMARK    8  A    between atoms: _15  and  _16
REMARK    9  A    between atoms: _19  and  _21
REMARK   10  A    between atoms: _21  and  _22
REMARK   11  A    between atoms: _24  and  _26
REMARK   12  A    between atoms: _26  and  _27
REMARK   13  A    between atoms: _31  and  _32
REMARK   14  A    between atoms: _37  and  _39
REMARK   15  A    between atoms: _39  and  _40
REMARK   16  A    between atoms: _42  and  _44
REMARK   17  A    between atoms: _44  and  _45
REMARK   18  A    between atoms: _48  and  _50
REMARK   19  A    between atoms: _50  and  _51
REMARK   20  A    between atoms: _53  and  _55
REMARK   21  A    between atoms: _55  and  _56
REMARK   22  A    between atoms: _55  and  _58
REMARK   23  A    between atoms: _58  and  _59
REMARK   24  A    between atoms: _59  and  _60
REMARK   25  A    between atoms: _60  and  _61
REMARK   26  A    between atoms: _61  and  _62
REMARK   27  A    between atoms: _66  and  _68
REMARK   28  A    between atoms: _68  and  _69
REMARK   29  A    between atoms: _71  and  _73
REMARK   30  A    between atoms: _73  and  _74
REMARK   31  A    between atoms: _73  and  _76
REMARK   32  A    between atoms: _76  and  _77
REMARK   33  A    between atoms: _80  and  _82
REMARK   34  A    between atoms: _82  and  _83
REMARK   35  A    between atoms: _82  and  _85
REMARK   36  A    between atoms: _85  and  _86
REMARK   37  A    between atoms: _86  and  _87
REMARK   38  A    between atoms: _92  and  _94
REMARK   39  A    between atoms: _94  and  _95
REMARK   40  A    between atoms: _98  and  _100
REMARK   41  A    between atoms: _100  and  _101
REMARK   42  A    between atoms: _100  and  _103
REMARK   43  A    between atoms: _103  and  _104
REMARK   44  A    between atoms: _104  and  _105
REMARK   45  A    between atoms: _110  and  _112
REMARK   46  A    between atoms: _112  and  _113
REMARK   47  A    between atoms: _112  and  _115
REMARK   48  A    between atoms: _115  and  _116
REMARK   49  A    between atoms: _122  and  _124
REMARK   50  A    between atoms: _124  and  _125
REMARK   51  A    between atoms: _124  and  _127
REMARK   52  A    between atoms: _127  and  _128
REMARK   53  A    between atoms: _128  and  _129
REMARK   54  A    between atoms: _134  and  _136
REMARK   55  A    between atoms: _136  and  _137
REMARK   56  A    between atoms: _136  and  _139
REMARK   57  A    between atoms: _139  and  _140
REMARK   58  A    between atoms: _142  and  _144
REMARK   59  A    between atoms: _144  and  _145
REMARK   60  A    between atoms: _144  and  _147
REMARK   61  A    between atoms: _147  and  _148
REMARK   62  A    between atoms: _151  and  _153
REMARK   63  A    between atoms: _153  and  _154
REMARK   64  A    between atoms: _156  and  _158
REMARK   65  A    between atoms: _158  and  _159
REMARK   66  A    between atoms: _158  and  _161
REMARK   67  A    between atoms: _161  and  _162
REMARK   68  A    between atoms: _165  and  _167
REMARK   69  A    between atoms: _167  and  _168
REMARK   70  A    between atoms: _167  and  _170
REMARK   71  A    between atoms: _170  and  _171
REMARK   72  A    between atoms: _171  and  _172
REMARK   73  A    between atoms: _174  and  _176
REMARK   74  A    between atoms: _176  and  _177
REMARK   75  A    between atoms: _176  and  _179
REMARK   76  A    between atoms: _179  and  _180
REMARK   77  A    between atoms: _183  and  _185
REMARK   78  A    between atoms: _185  and  _186
REMARK   79  A    between atoms: _185  and  _188
REMARK   80  A    between atoms: _188  and  _189
REMARK   81  A    between atoms: _189  and  _190
REMARK   82  A    between atoms: _190  and  _191
REMARK   83  A    between atoms: _200  and  _202
REMARK   84  A    between atoms: _202  and  _203
REMARK   85  A    between atoms: _206  and  _208
REMARK   86  A    between atoms: _208  and  _209
REMARK   87  A    between atoms: _208  and  _211
REMARK   88  A    between atoms: _211  and  _212
REMARK   89  A    between atoms: _212  and  _213
REMARK   90  A    between atoms: _213  and  _214
REMARK   91  A    between atoms: _214  and  _215
REMARK   92  A    between atoms: _219  and  _221
REMARK   93  A    between atoms: _221  and  _222
REMARK   94  A    between atoms: _221  and  _224
REMARK   95  A    between atoms: _224  and  _225
REMARK   96  A    between atoms: _228  and  _230
REMARK   97  A    between atoms: _230  and  _231
REMARK   98  A    between atoms: _230  and  _233
REMARK   99  A    between atoms: _233  and  _234
REMARK  100  A    between atoms: _237  and  _239
REMARK  101  A    between atoms: _239  and  _240
REMARK  102  A    between atoms: _239  and  _242
REMARK  103  A    between atoms: _242  and  _243
REMARK  104  A    between atoms: _243  and  _244
REMARK  105  A    between atoms: _246  and  _248
REMARK  106  A    between atoms: _248  and  _249
REMARK  107  A    between atoms: _248  and  _251
REMARK  108  A    between atoms: _251  and  _252
REMARK  109  A    between atoms: _255  and  _257
REMARK  110  A    between atoms: _257  and  _258
REMARK  111  A    between atoms: _261  and  _263
REMARK  112  A    between atoms: _263  and  _264
REMARK  113  A    between atoms: _266  and  _268
REMARK  114  A    between atoms: _268  and  _269
REMARK  115  A    between atoms: _268  and  _271
REMARK  116  A    between atoms: _271  and  _272
REMARK  117  A    between atoms: _272  and  _273
REMARK  118  A    between atoms: _273  and  _274
REMARK  119  A    between atoms: _274  and  _275
REMARK  120  A    between atoms: _279  and  _281
REMARK  121  A    between atoms: _281  and  _282
REMARK  122  A    between atoms: _281  and  _284
REMARK  123  A    between atoms: _284  and  _285
REMARK  124  A    between atoms: _288  and  _290
REMARK  125  A    between atoms: _290  and  _291
REMARK  126  A    between atoms: _290  and  _293
REMARK  127  A    between atoms: _296  and  _298
REMARK  128  A    between atoms: _298  and  _299
REMARK  129  A    between atoms: _298  and  _301
REMARK  130  A    between atoms: _301  and  _302
REMARK  131  A    between atoms: _305  and  _307
REMARK  132  A    between atoms: _307  and  _308
REMARK  133  A    between atoms: _307  and  _310
REMARK  134  A    between atoms: _310  and  _311
REMARK  135  A    between atoms: _314  and  _316
REMARK  136  A    between atoms: _316  and  _317
REMARK  137  A    between atoms: _316  and  _319
REMARK  138  A    between atoms: _319  and  _320
REMARK  139  A    between atoms: _320  and  _321
REMARK  140  A    between atoms: _324  and  _326
REMARK  141  A    between atoms: _326  and  _327
REMARK  142  A    between atoms: _326  and  _329
REMARK  143  A    between atoms: _329  and  _330
REMARK  144  A    between atoms: _333  and  _335
REMARK  145  A    between atoms: _335  and  _336
REMARK  146  A    between atoms: _335  and  _338
REMARK  147  A    between atoms: _341  and  _343
REMARK  148  A    between atoms: _343  and  _344
REMARK  149  A    between atoms: _343  and  _346
REMARK  150  A    between atoms: _346  and  _347
REMARK  151  A    between atoms: _350  and  _352
REMARK  152  A    between atoms: _352  and  _353
REMARK  153  A    between atoms: _352  and  _355
REMARK  154  A    between atoms: _358  and  _360
REMARK  155  A    between atoms: _360  and  _361
REMARK  156  A    between atoms: _360  and  _363
REMARK  157  A    between atoms: _363  and  _364
REMARK  158  A    between atoms: _367  and  _369
REMARK  159  A    between atoms: _369  and  _370
REMARK  160  A    between atoms: _372  and  _374
REMARK  161  A    between atoms: _374  and  _375
REMARK  162  A    between atoms: _374  and  _377
REMARK  163  A    between atoms: _377  and  _378
REMARK  164  A    between atoms: _385  and  _386
REMARK  165  A    between atoms: _391  and  _393
REMARK  166  A    between atoms: _393  and  _394
REMARK  167  A    between atoms: _393  and  _396
REMARK  168  A    between atoms: _396  and  _397
REMARK  169  A    between atoms: _397  and  _398
REMARK  170  A    between atoms: _398  and  _399
REMARK  171  A    between atoms: _408  and  _410
REMARK  172  A    between atoms: _410  and  _411
REMARK  173  A    between atoms: _410  and  _413
REMARK  174  A    between atoms: _413  and  _414
REMARK  175  A    between atoms: _417  and  _419
REMARK  176  A    between atoms: _419  and  _420
REMARK  177  A    between atoms: _419  and  _422
REMARK  178  A    between atoms: _422  and  _423
REMARK  179  A    between atoms: _423  and  _424
REMARK  180  A    between atoms: _429  and  _431
REMARK  181  A    between atoms: _431  and  _432
REMARK  182  A    between atoms: _431  and  _434
REMARK  183  A    between atoms: _434  and  _435
REMARK  184  A    between atoms: _441  and  _443
REMARK  185  A    between atoms: _443  and  _444
REMARK  186  A    between atoms: _443  and  _446
REMARK  187  A    between atoms: _449  and  _451
REMARK  188  A    between atoms: _451  and  _452
REMARK  189  A    between atoms: _451  and  _454
REMARK  190  A    between atoms: _454  and  _455
REMARK  191  A    between atoms: _458  and  _460
REMARK  192  A    between atoms: _460  and  _461
REMARK  193  A    between atoms: _460  and  _463
REMARK  194  A    between atoms: _463  and  _464
REMARK  195  A    between atoms: _467  and  _469
REMARK  196  A    between atoms: _469  and  _470
REMARK  197  A    between atoms: _469  and  _472
REMARK  198  A    between atoms: _475  and  _477
REMARK  199  A    between atoms: _477  and  _478
REMARK  200  A    between atoms: _477  and  _480
REMARK  201  A    between atoms: _480  and  _481
REMARK  202  A    between atoms: _484  and  _486
REMARK  203  A    between atoms: _486  and  _487
REMARK  204  A    between atoms: _486  and  _489
REMARK  205  A    between atoms: _489  and  _490
REMARK  206  A    between atoms: _490  and  _491
REMARK  207  A    between atoms: _491  and  _492
REMARK  208  A    between atoms: _501  and  _503
REMARK  209  A    between atoms: _503  and  _504
REMARK  210  A    between atoms: _503  and  _506
REMARK  211  A    between atoms: _506  and  _507
REMARK  212  A    between atoms: _510  and  _512
REMARK  213  A    between atoms: _512  and  _513
REMARK  214  A    between atoms: _512  and  _515
REMARK  215  A    between atoms: _518  and  _520
REMARK  216  A    between atoms: _520  and  _521
REMARK  217  A    between atoms: _523  and  _525
REMARK  218  A    between atoms: _525  and  _526
REMARK  219  A    between atoms: _525  and  _528
REMARK  220  A    between atoms: _528  and  _529
REMARK  221  A    between atoms: _529  and  _530
REMARK  222  A    between atoms: _530  and  _531
REMARK  223  A    between atoms: _540  and  _542
REMARK  224  A    between atoms: _542  and  _543
REMARK  225  A    between atoms: _542  and  _545
REMARK  226  A    between atoms: _545  and  _546
REMARK  227  A    between atoms: _546  and  _547
REMARK  228  A    between atoms: _547  and  _548
REMARK  229  A    between atoms: _557  and  _559
REMARK  230  A    between atoms: _559  and  _560
REMARK  231  A    between atoms: _559  and  _562
REMARK  232  A    between atoms: _565  and  _567
REMARK  233  A    between atoms: _567  and  _568
REMARK  234  A    between atoms: _570  and  _572
REMARK  235  A    between atoms: _572  and  _573
REMARK  236  A    between atoms: _572  and  _575
REMARK  237  A    between atoms: _575  and  _576
REMARK  238  A    between atoms: _576  and  _577
REMARK  239  A    between atoms: _577  and  _578
REMARK  240  A    between atoms: _587  and  _589
REMARK  241  A    between atoms: _589  and  _590
REMARK  242  A    between atoms: _589  and  _592
REMARK  243  A    between atoms: _595  and  _597
REMARK  244  A    between atoms: _597  and  _598
REMARK  245  A    between atoms: _597  and  _600
REMARK  246  A    between atoms: _600  and  _601
REMARK  247  A    between atoms: _606  and  _607
REMARK  248  A    between atoms: _609  and  _611
REMARK  249  A    between atoms: _611  and  _612
REMARK  250  A    between atoms: _611  and  _614
REMARK  251  A    between atoms: _614  and  _615
REMARK  252  A    between atoms: _620  and  _622
REMARK  253  A    between atoms: _622  and  _623
REMARK  254  A    between atoms: _622  and  _625
REMARK  255  A    between atoms: _628  and  _630
REMARK  256  A    between atoms: _630  and  _631
REMARK  257  A    between atoms: _630  and  _633
REMARK  258  A    between atoms: _633  and  _634
REMARK  259  A    between atoms: _634  and  _635
REMARK  260  A    between atoms: _635  and  _636
REMARK  261  A    between atoms: _636  and  _637
REMARK  262  A    between atoms: _641  and  _643
REMARK  263  A    between atoms: _643  and  _644
REMARK  264  A    between atoms: _643  and  _646
REMARK  265  A    between atoms: _646  and  _647
REMARK  266  A    between atoms: _653  and  _655
REMARK  267  A    between atoms: _655  and  _656
REMARK  268  A    between atoms: _655  and  _658
REMARK  269  A    between atoms: _658  and  _659
REMARK  270  A    between atoms: _665  and  _666
REMARK  271  A    between atoms: _671  and  _673
REMARK  272  A    between atoms: _673  and  _674
REMARK  273  A    between atoms: _673  and  _676
REMARK  274  A    between atoms: _676  and  _677
REMARK  275  A    between atoms: _677  and  _678
REMARK  276  A    between atoms: _678  and  _679
REMARK  277  A    between atoms: _688  and  _690
REMARK  278  A    between atoms: _690  and  _691
REMARK  279  A    between atoms: _690  and  _693
REMARK  280  A    between atoms: _693  and  _694
REMARK  281  A    between atoms: _697  and  _699
REMARK  282  A    between atoms: _699  and  _700
REMARK  283  A    between atoms: _699  and  _702
REMARK  284  A    between atoms: _702  and  _703
REMARK  285  A    between atoms: _706  and  _708
REMARK  286  A    between atoms: _708  and  _709
REMARK  287  A    between atoms: _708  and  _711
REMARK  288  A    between atoms: _711  and  _712
REMARK  289  A    between atoms: _715  and  _717
REMARK  290  A    between atoms: _717  and  _718
REMARK  291  A    between atoms: _717  and  _720
REMARK  292  A    between atoms: _723  and  _725
REMARK  293  A    between atoms: _725  and  _726
REMARK  294  A    between atoms: _725  and  _728
REMARK  295  A    between atoms: _728  and  _729
REMARK  296  A    between atoms: _729  and  _730
REMARK  297  A    between atoms: _730  and  _731
REMARK  298  A    between atoms: _731  and  _732
REMARK  299  A    between atoms: _736  and  _738
REMARK  300  A    between atoms: _738  and  _739
REMARK  301  A    between atoms: _738  and  _741
REMARK  302  A    between atoms: _741  and  _742
REMARK  303  A    between atoms: _742  and  _743
REMARK  304  A    between atoms: _743  and  _744
REMARK  305  A    between atoms: _753  and  _755
REMARK  306  A    between atoms: _755  and  _756
REMARK  307  A    between atoms: _755  and  _758
REMARK  308  A    between atoms: _758  and  _759
REMARK  309  A    between atoms: _762  and  _764
REMARK  310  A    between atoms: _764  and  _765
REMARK  311  A    between atoms: _764  and  _767
REMARK  312  A    between atoms: _767  and  _768
REMARK  313  A    between atoms: _768  and  _769
REMARK  314  A    between atoms: _772  and  _774
REMARK  315  A    between atoms: _774  and  _775
REMARK  316  A    between atoms: _774  and  _777
REMARK  317  A    between atoms: _777  and  _778
REMARK  318  A    between atoms: _788  and  _790
REMARK  319  A    between atoms: _790  and  _791
REMARK  320  A    between atoms: _790  and  _793
REMARK  321  A    between atoms: _793  and  _794
REMARK  322  A    between atoms: _797  and  _799
REMARK  323  A    between atoms: _799  and  _800
REMARK  324  A    between atoms: _799  and  _802
REMARK  325  A    between atoms: _802  and  _803
REMARK  326  A    between atoms: _806  and  _808
REMARK  327  A    between atoms: _808  and  _809
REMARK  328  A    between atoms: _811  and  _813
REMARK  329  A    between atoms: _813  and  _814
REMARK  330  A    between atoms: _813  and  _816
REMARK  331  A    between atoms: _816  and  _817
REMARK  332  A    between atoms: _820  and  _822
REMARK  333  A    between atoms: _822  and  _823
REMARK  334  A    between atoms: _822  and  _825
REMARK  335  A    between atoms: _825  and  _826
REMARK  336  A    between atoms: _826  and  _827
REMARK  337  A    between atoms: _827  and  _828
REMARK  338  A    between atoms: _828  and  _829
REMARK  339  A    between atoms: _834  and  _835
REMARK  340  A    between atoms: _840  and  _842
REMARK  341  A    between atoms: _842  and  _843
REMARK  342  A    between atoms: _842  and  _845
REMARK  343  A    between atoms: _848  and  _850
REMARK  344  A    between atoms: _850  and  _851
REMARK  345  A    between atoms: _854  and  _856
REMARK  346  A    between atoms: _856  and  _857
REMARK  347  A    between atoms: _856  and  _859
REMARK  348  A    between atoms: _859  and  _860
REMARK  349  A    between atoms: _860  and  _861
REMARK  350  A    between atoms: _864  and  _866
REMARK  351  A    between atoms: _866  and  _867
REMARK  352  A    between atoms: _866  and  _869
REMARK  353  A    between atoms: _872  and  _874
REMARK  354  A    between atoms: _874  and  _875
REMARK  355  A    between atoms: _874  and  _877
REMARK  356  A    between atoms: _877  and  _878
REMARK  357  A    between atoms: _878  and  _879
REMARK  358  A    between atoms: _879  and  _880
REMARK                            x       y       z     vdW  Elec       q    Type
REMARK                         _______ _______ _______ _____ _____    ______ ____
ROOT
ATOM      1  O   HOH     1     -13.917   8.550 -33.839  0.00  0.00    +0.000 OA
ENDROOT
TORSDOF 0
REMARK  Name = ../refined-set-2016/4x8o/4x8o_pocket.pdb
REMARK  358 active torsions:
REMARK  status: ('A' for Active; 'I' for Inactive)
REMARK    1  A    between atoms: _1  and  _3
REMARK    2  A    between atoms: _3  and  _4
REMARK    3  A    between atoms: _3  and  _6
REMARK    4  A    between atoms: _6  and  _7
REMARK    5  A    between atoms: _10  and  _12
REMARK    6  A    between atoms: _12  and  _13
REMARK    7  A    between atoms: _12  and  _15
REMARK    8  A    between atoms: _15  and  _16
REMARK    9  A    between atoms: _19  and  _21
REMARK   10  A    between atoms: _21  and  _22
REMARK   11  A    between atoms: _24  and  _26
REMARK   12  A    between atoms: _26  and  _27
REMARK   13  A    between atoms: _31  and  _32
REMARK   14  A    between atoms: _37  and  _39
REMARK   15  A    between atoms: _39  and  _40
REMARK   16  A    between atoms: _42  and  _44
REMARK   17  A    between atoms: _44  and  _45
REMARK   18  A    between atoms: _48  and  _50
REMARK   19  A    between atoms: _50  and  _51
REMARK   20  A    between atoms: _53  and  _55
REMARK   21  A    between atoms: _55  and  _56
REMARK   22  A    between atoms: _55  and  _58
REMARK   23  A    between atoms: _58  and  _59
REMARK   24  A    between atoms: _59  and  _60
REMARK   25  A    between atoms: _60  and  _61
REMARK   26  A    between atoms: _61  and  _62
REMARK   27  A    between atoms: _66  and  _68
REMARK   28  A    between atoms: _68  and  _69
REMARK   29  A    between atoms: _71  and  _73
REMARK   30  A    between atoms: _73  and  _74
REMARK   31  A    between atoms: _73  and  _76
REMARK   32  A    between atoms: _76  and  _77
REMARK   33  A    between atoms: _80  and  _82
REMARK   34  A    between atoms: _82  and  _83
REMARK   35  A    between atoms: _82  and  _85
REMARK   36  A    between atoms: _85  and  _86
REMARK   37  A    between atoms: _86  and  _87
REMARK   38  A    between atoms: _92  and  _94
REMARK   39  A    between atoms: _94  and  _95
REMARK   40  A    between atoms: _98  and  _100
REMARK   41  A    between atoms: _100  and  _101
REMARK   42  A    between atoms: _100  and  _103
REMARK   43  A    between atoms: _103  and  _104
REMARK   44  A    between atoms: _104  and  _105
REMARK   45  A    between atoms: _110  and  _112
REMARK   46  A    between atoms: _112  and  _113
REMARK   47  A    between atoms: _112  and  _115
REMARK   48  A    between atoms: _115  and  _116
REMARK   49  A    between atoms: _122  and  _124
REMARK   50  A    between atoms: _124  and  _125
REMARK   51  A    between atoms: _124  and  _127
REMARK   52  A    between atoms: _127  and  _128
REMARK   53  A    between atoms: _128  and  _129
REMARK   54  A    between atoms: _134  and  _136
REMARK   55  A    between atoms: _136  and  _137
REMARK   56  A    between atoms: _136  and  _139
REMARK   57  A    between atoms: _139  and  _140
REMARK   58  A    between atoms: _142  and  _144
REMARK   59  A    between atoms: _144  and  _145
REMARK   60  A    between atoms: _144  and  _147
REMARK   61  A    between atoms: _147  and  _148
REMARK   62  A    between atoms: _151  and  _153
REMARK   63  A    between atoms: _153  and  _154
REMARK   64  A    between atoms: _156  and  _158
REMARK   65  A    between atoms: _158  and  _159
REMARK   66  A    between atoms: _158  and  _161
REMARK   67  A    between atoms: _161  and  _162
REMARK   68  A    between atoms: _165  and  _167
REMARK   69  A    between atoms: _167  and  _168
REMARK   70  A    between atoms: _167  and  _170
REMARK   71  A    between atoms: _170  and  _171
REMARK   72  A    between atoms: _171  and  _172
REMARK   73  A    between atoms: _174  and  _176
REMARK   74  A    between atoms: _176  and  _177
REMARK   75  A    between atoms: _176  and  _179
REMARK   76  A    between atoms: _179  and  _180
REMARK   77  A    between atoms: _183  and  _185
REMARK   78  A    between atoms: _185  and  _186
REMARK   79  A    between atoms: _185  and  _188
REMARK   80  A    between atoms: _188  and  _189
REMARK   81  A    between atoms: _189  and  _190
REMARK   82  A    between atoms: _190  and  _191
REMARK   83  A    between atoms: _200  and  _202
REMARK   84  A    between atoms: _202  and  _203
REMARK   85  A    between atoms: _206  and  _208
REMARK   86  A    between atoms: _208  and  _209
REMARK   87  A    between atoms: _208  and  _211
REMARK   88  A    between atoms: _211  and  _212
REMARK   89  A    between atoms: _212  and  _213
REMARK   90  A    between atoms: _213  and  _214
REMARK   91  A    between atoms: _214  and  _215
REMARK   92  A    between atoms: _219  and  _221
REMARK   93  A    between atoms: _221  and  _222
REMARK   94  A    between atoms: _221  and  _224
REMARK   95  A    between atoms: _224  and  _225
REMARK   96  A    between atoms: _228  and  _230
REMARK   97  A    between atoms: _230  and  _231
REMARK   98  A    between atoms: _230  and  _233
REMARK   99  A    between atoms: _233  and  _234
REMARK  100  A    between atoms: _237  and  _239
REMARK  101  A    between atoms: _239  and  _240
REMARK  102  A    between atoms: _239  and  _242
REMARK  103  A    between atoms: _242  and  _243
REMARK  104  A    between atoms: _243  and  _244
REMARK  105  A    between atoms: _246  and  _248
REMARK  106  A    between atoms: _248  and  _249
REMARK  107  A    between atoms: _248  and  _251
REMARK  108  A    between atoms: _251  and  _252
REMARK  109  A    between atoms: _255  and  _257
REMARK  110  A    between atoms: _257  and  _258
REMARK  111  A    between atoms: _261  and  _263
REMARK  112  A    between atoms: _263  and  _264
REMARK  113  A    between atoms: _266  and  _268
REMARK  114  A    between atoms: _268  and  _269
REMARK  115  A    between atoms: _268  and  _271
REMARK  116  A    between atoms: _271  and  _272
REMARK  117  A    between atoms: _272  and  _273
REMARK  118  A    between atoms: _273  and  _274
REMARK  119  A    between atoms: _274  and  _275
REMARK  120  A    between atoms: _279  and  _281
REMARK  121  A    between atoms: _281  and  _282
REMARK  122  A    between atoms: _281  and  _284
REMARK  123  A    between atoms: _284  and  _285
REMARK  124  A    between atoms: _288  and  _290
REMARK  125  A    between atoms: _290  and  _291
REMARK  126  A    between atoms: _290  and  _293
REMARK  127  A    between atoms: _296  and  _298
REMARK  128  A    between atoms: _298  and  _299
REMARK  129  A    between atoms: _298  and  _301
REMARK  130  A    between atoms: _301  and  _302
REMARK  131  A    between atoms: _305  and  _307
REMARK  132  A    between atoms: _307  and  _308
REMARK  133  A    between atoms: _307  and  _310
REMARK  134  A    between atoms: _310  and  _311
REMARK  135  A    between atoms: _314  and  _316
REMARK  136  A    between atoms: _316  and  _317
REMARK  137  A    between atoms: _316  and  _319
REMARK  138  A    between atoms: _319  and  _320
REMARK  139  A    between atoms: _320  and  _321
REMARK  140  A    between atoms: _324  and  _326
REMARK  141  A    between atoms: _326  and  _327
REMARK  142  A    between atoms: _326  and  _329
REMARK  143  A    between atoms: _329  and  _330
REMARK  144  A    between atoms: _333  and  _335
REMARK  145  A    between atoms: _335  and  _336
REMARK  146  A    between atoms: _335  and  _338
REMARK  147  A    between atoms: _341  and  _343
REMARK  148  A    between atoms: _343  and  _344
REMARK  149  A    between atoms: _343  and  _346
REMARK  150  A    between atoms: _346  and  _347
REMARK  151  A    between atoms: _350  and  _352
REMARK  152  A    between atoms: _352  and  _353
REMARK  153  A    between atoms: _352  and  _355
REMARK  154  A    between atoms: _358  and  _360
REMARK  155  A    between atoms: _360  and  _361
REMARK  156  A    between atoms: _360  and  _363
REMARK  157  A    between atoms: _363  and  _364
REMARK  158  A    between atoms: _367  and  _369
REMARK  159  A    between atoms: _369  and  _370
REMARK  160  A    between atoms: _372  and  _374
REMARK  161  A    between atoms: _374  and  _375
REMARK  162  A    between atoms: _374  and  _377
REMARK  163  A    between atoms: _377  and  _378
REMARK  164  A    between atoms: _385  and  _386
REMARK  165  A    between atoms: _391  and  _393
REMARK  166  A    between atoms: _393  and  _394
REMARK  167  A    between atoms: _393  and  _396
REMARK  168  A    between atoms: _396  and  _397
REMARK  169  A    between atoms: _397  and  _398
REMARK  170  A    between atoms: _398  and  _399
REMARK  171  A    between atoms: _408  and  _410
REMARK  172  A    between atoms: _410  and  _411
REMARK  173  A    between atoms: _410  and  _413
REMARK  174  A    between atoms: _413  and  _414
REMARK  175  A    between atoms: _417  and  _419
REMARK  176  A    between atoms: _419  and  _420
REMARK  177  A    between atoms: _419  and  _422
REMARK  178  A    between atoms: _422  and  _423
REMARK  179  A    between atoms: _423  and  _424
REMARK  180  A    between atoms: _429  and  _431
REMARK  181  A    between atoms: _431  and  _432
REMARK  182  A    between atoms: _431  and  _434
REMARK  183  A    between atoms: _434  and  _435
REMARK  184  A    between atoms: _441  and  _443
REMARK  185  A    between atoms: _443  and  _444
REMARK  186  A    between atoms: _443  and  _446
REMARK  187  A    between atoms: _449  and  _451
REMARK  188  A    between atoms: _451  and  _452
REMARK  189  A    between atoms: _451  and  _454
REMARK  190  A    between atoms: _454  and  _455
REMARK  191  A    between atoms: _458  and  _460
REMARK  192  A    between atoms: _460  and  _461
REMARK  193  A    between atoms: _460  and  _463
REMARK  194  A    between atoms: _463  and  _464
REMARK  195  A    between atoms: _467  and  _469
REMARK  196  A    between atoms: _469  and  _470
REMARK  197  A    between atoms: _469  and  _472
REMARK  198  A    between atoms: _475  and  _477
REMARK  199  A    between atoms: _477  and  _478
REMARK  200  A    between atoms: _477  and  _480
REMARK  201  A    between atoms: _480  and  _481
REMARK  202  A    between atoms: _484  and  _486
REMARK  203  A    between atoms: _486  and  _487
REMARK  204  A    between atoms: _486  and  _489
REMARK  205  A    between atoms: _489  and  _490
REMARK  206  A    between atoms: _490  and  _491
REMARK  207  A    between atoms: _491  and  _492
REMARK  208  A    between atoms: _501  and  _503
REMARK  209  A    between atoms: _503  and  _504
REMARK  210  A    between atoms: _503  and  _506
REMARK  211  A    between atoms: _506  and  _507
REMARK  212  A    between atoms: _510  and  _512
REMARK  213  A    between atoms: _512  and  _513
REMARK  214  A    between atoms: _512  and  _515
REMARK  215  A    between atoms: _518  and  _520
REMARK  216  A    between atoms: _520  and  _521
REMARK  217  A    between atoms: _523  and  _525
REMARK  218  A    between atoms: _525  and  _526
REMARK  219  A    between atoms: _525  and  _528
REMARK  220  A    between atoms: _528  and  _529
REMARK  221  A    between atoms: _529  and  _530
REMARK  222  A    between atoms: _530  and  _531
REMARK  223  A    between atoms: _540  and  _542
REMARK  224  A    between atoms: _542  and  _543
REMARK  225  A    between atoms: _542  and  _545
REMARK  226  A    between atoms: _545  and  _546
REMARK  227  A    between atoms: _546  and  _547
REMARK  228  A    between atoms: _547  and  _548
REMARK  229  A    between atoms: _557  and  _559
REMARK  230  A    between atoms: _559  and  _560
REMARK  231  A    between atoms: _559  and  _562
REMARK  232  A    between atoms: _565  and  _567
REMARK  233  A    between atoms: _567  and  _568
REMARK  234  A    between atoms: _570  and  _572
REMARK  235  A    between atoms: _572  and  _573
REMARK  236  A    between atoms: _572  and  _575
REMARK  237  A    between atoms: _575  and  _576
REMARK  238  A    between atoms: _576  and  _577
REMARK  239  A    between atoms: _577  and  _578
REMARK  240  A    between atoms: _587  and  _589
REMARK  241  A    between atoms: _589  and  _590
REMARK  242  A    between atoms: _589  and  _592
REMARK  243  A    between atoms: _595  and  _597
REMARK  244  A    between atoms: _597  and  _598
REMARK  245  A    between atoms: _597  and  _600
REMARK  246  A    between atoms: _600  and  _601
REMARK  247  A    between atoms: _606  and  _607
REMARK  248  A    between atoms: _609  and  _611
REMARK  249  A    between atoms: _611  and  _612
REMARK  250  A    between atoms: _611  and  _614
REMARK  251  A    between atoms: _614  and  _615
REMARK  252  A    between atoms: _620  and  _622
REMARK  253  A    between atoms: _622  and  _623
REMARK  254  A    between atoms: _622  and  _625
REMARK  255  A    between atoms: _628  and  _630
REMARK  256  A    between atoms: _630  and  _631
REMARK  257  A    between atoms: _630  and  _633
REMARK  258  A    between atoms: _633  and  _634
REMARK  259  A    between atoms: _634  and  _635
REMARK  260  A    between atoms: _635  and  _636
REMARK  261  A    between atoms: _636  and  _637
REMARK  262  A    between atoms: _641  and  _643
REMARK  263  A    between atoms: _643  and  _644
REMARK  264  A    between atoms: _643  and  _646
REMARK  265  A    between atoms: _646  and  _647
REMARK  266  A    between atoms: _653  and  _655
REMARK  267  A    between atoms: _655  and  _656
REMARK  268  A    between atoms: _655  and  _658
REMARK  269  A    between atoms: _658  and  _659
REMARK  270  A    between atoms: _665  and  _666
REMARK  271  A    between atoms: _671  and  _673
REMARK  272  A    between atoms: _673  and  _674
REMARK  273  A    between atoms: _673  and  _676
REMARK  274  A    between atoms: _676  and  _677
REMARK  275  A    between atoms: _677  and  _678
REMARK  276  A    between atoms: _678  and  _679
REMARK  277  A    between atoms: _688  and  _690
REMARK  278  A    between atoms: _690  and  _691
REMARK  279  A    between atoms: _690  and  _693
REMARK  280  A    between atoms: _693  and  _694
REMARK  281  A    between atoms: _697  and  _699
REMARK  282  A    between atoms: _699  and  _700
REMARK  283  A    between atoms: _699  and  _702
REMARK  284  A    between atoms: _702  and  _703
REMARK  285  A    between atoms: _706  and  _708
REMARK  286  A    between atoms: _708  and  _709
REMARK  287  A    between atoms: _708  and  _711
REMARK  288  A    between atoms: _711  and  _712
REMARK  289  A    between atoms: _715  and  _717
REMARK  290  A    between atoms: _717  and  _718
REMARK  291  A    between atoms: _717  and  _720
REMARK  292  A    between atoms: _723  and  _725
REMARK  293  A    between atoms: _725  and  _726
REMARK  294  A    between atoms: _725  and  _728
REMARK  295  A    between atoms: _728  and  _729
REMARK  296  A    between atoms: _729  and  _730
REMARK  297  A    between atoms: _730  and  _731
REMARK  298  A    between atoms: _731  and  _732
REMARK  299  A    between atoms: _736  and  _738
REMARK  300  A    between atoms: _738  and  _739
REMARK  301  A    between atoms: _738  and  _741
REMARK  302  A    between atoms: _741  and  _742
REMARK  303  A    between atoms: _742  and  _743
REMARK  304  A    between atoms: _743  and  _744
REMARK  305  A    between atoms: _753  and  _755
REMARK  306  A    between atoms: _755  and  _756
REMARK  307  A    between atoms: _755  and  _758
REMARK  308  A    between atoms: _758  and  _759
REMARK  309  A    between atoms: _762  and  _764
REMARK  310  A    between atoms: _764  and  _765
REMARK  311  A    between atoms: _764  and  _767
REMARK  312  A    between atoms: _767  and  _768
REMARK  313  A    between atoms: _768  and  _769
REMARK  314  A    between atoms: _772  and  _774
REMARK  315  A    between atoms: _774  and  _775
REMARK  316  A    between atoms: _774  and  _777
REMARK  317  A    between atoms: _777  and  _778
REMARK  318  A    between atoms: _788  and  _790
REMARK  319  A    between atoms: _790  and  _791
REMARK  320  A    between atoms: _790  and  _793
REMARK  321  A    between atoms: _793  and  _794
REMARK  322  A    between atoms: _797  and  _799
REMARK  323  A    between atoms: _799  and  _800
REMARK  324  A    between atoms: _799  and  _802
REMARK  325  A    between atoms: _802  and  _803
REMARK  326  A    between atoms: _806  and  _808
REMARK  327  A    between atoms: _808  and  _809
REMARK  328  A    between atoms: _811  and  _813
REMARK  329  A    between atoms: _813  and  _814
REMARK  330  A    between atoms: _813  and  _816
REMARK  331  A    between atoms: _816  and  _817
REMARK  332  A    between atoms: _820  and  _822
REMARK  333  A    between atoms: _822  and  _823
REMARK  334  A    between atoms: _822  and  _825
REMARK  335  A    between atoms: _825  and  _826
REMARK  336  A    between atoms: _826  and  _827
REMARK  337  A    between atoms: _827  and  _828
REMARK  338  A    between atoms: _828  and  _829
REMARK  339  A    between atoms: _834  and  _835
REMARK  340  A    between atoms: _840  and  _842
REMARK  341  A    between atoms: _842  and  _843
REMARK  342  A    between atoms: _842  and  _845
REMARK  343  A    between atoms: _848  and  _850
REMARK  344  A    between atoms: _850  and  _851
REMARK  345  A    between atoms: _854  and  _856
REMARK  346  A    between atoms: _856  and  _857
REMARK  347  A    between atoms: _856  and  _859
REMARK  348  A    between atoms: _859  and  _860
REMARK  349  A    between atoms: _860  and  _861
REMARK  350  A    between atoms: _864  and  _866
REMARK  351  A    between atoms: _866  and  _867
REMARK  352  A    between atoms: _866  and  _869
REMARK  353  A    between atoms: _872  and  _874
REMARK  354  A    between atoms: _874  and  _875
REMARK  355  A    between atoms: _874  and  _877
REMARK  356  A    between atoms: _877  and  _878
REMARK  357  A    between atoms: _878  and  _879
REMARK  358  A    between atoms: _879  and  _880
REMARK                            x       y       z     vdW  Elec       q    Type
REMARK                         _______ _______ _______ _____ _____    ______ ____
ROOT
ATOM      1  O   HOH     1     -16.750   3.360 -28.296  0.00  0.00    +0.000 OA
ENDROOT
TORSDOF 0
REMARK  Name = ../refined-set-2016/4x8o/4x8o_pocket.pdb
REMARK  358 active torsions:
REMARK  status: ('A' for Active; 'I' for Inactive)
REMARK    1  A    between atoms: _1  and  _3
REMARK    2  A    between atoms: _3  and  _4
REMARK    3  A    between atoms: _3  and  _6
REMARK    4  A    between atoms: _6  and  _7
REMARK    5  A    between atoms: _10  and  _12
REMARK    6  A    between atoms: _12  and  _13
REMARK    7  A    between atoms: _12  and  _15
REMARK    8  A    between atoms: _15  and  _16
REMARK    9  A    between atoms: _19  and  _21
REMARK   10  A    between atoms: _21  and  _22
REMARK   11  A    between atoms: _24  and  _26
REMARK   12  A    between atoms: _26  and  _27
REMARK   13  A    between atoms: _31  and  _32
REMARK   14  A    between atoms: _37  and  _39
REMARK   15  A    between atoms: _39  and  _40
REMARK   16  A    between atoms: _42  and  _44
REMARK   17  A    between atoms: _44  and  _45
REMARK   18  A    between atoms: _48  and  _50
REMARK   19  A    between atoms: _50  and  _51
REMARK   20  A    between atoms: _53  and  _55
REMARK   21  A    between atoms: _55  and  _56
REMARK   22  A    between atoms: _55  and  _58
REMARK   23  A    between atoms: _58  and  _59
REMARK   24  A    between atoms: _59  and  _60
REMARK   25  A    between atoms: _60  and  _61
REMARK   26  A    between atoms: _61  and  _62
REMARK   27  A    between atoms: _66  and  _68
REMARK   28  A    between atoms: _68  and  _69
REMARK   29  A    between atoms: _71  and  _73
REMARK   30  A    between atoms: _73  and  _74
REMARK   31  A    between atoms: _73  and  _76
REMARK   32  A    between atoms: _76  and  _77
REMARK   33  A    between atoms: _80  and  _82
REMARK   34  A    between atoms: _82  and  _83
REMARK   35  A    between atoms: _82  and  _85
REMARK   36  A    between atoms: _85  and  _86
REMARK   37  A    between atoms: _86  and  _87
REMARK   38  A    between atoms: _92  and  _94
REMARK   39  A    between atoms: _94  and  _95
REMARK   40  A    between atoms: _98  and  _100
REMARK   41  A    between atoms: _100  and  _101
REMARK   42  A    between atoms: _100  and  _103
REMARK   43  A    between atoms: _103  and  _104
REMARK   44  A    between atoms: _104  and  _105
REMARK   45  A    between atoms: _110  and  _112
REMARK   46  A    between atoms: _112  and  _113
REMARK   47  A    between atoms: _112  and  _115
REMARK   48  A    between atoms: _115  and  _116
REMARK   49  A    between atoms: _122  and  _124
REMARK   50  A    between atoms: _124  and  _125
REMARK   51  A    between atoms: _124  and  _127
REMARK   52  A    between atoms: _127  and  _128
REMARK   53  A    between atoms: _128  and  _129
REMARK   54  A    between atoms: _134  and  _136
REMARK   55  A    between atoms: _136  and  _137
REMARK   56  A    between atoms: _136  and  _139
REMARK   57  A    between atoms: _139  and  _140
REMARK   58  A    between atoms: _142  and  _144
REMARK   59  A    between atoms: _144  and  _145
REMARK   60  A    between atoms: _144  and  _147
REMARK   61  A    between atoms: _147  and  _148
REMARK   62  A    between atoms: _151  and  _153
REMARK   63  A    between atoms: _153  and  _154
REMARK   64  A    between atoms: _156  and  _158
REMARK   65  A    between atoms: _158  and  _159
REMARK   66  A    between atoms: _158  and  _161
REMARK   67  A    between atoms: _161  and  _162
REMARK   68  A    between atoms: _165  and  _167
REMARK   69  A    between atoms: _167  and  _168
REMARK   70  A    between atoms: _167  and  _170
REMARK   71  A    between atoms: _170  and  _171
REMARK   72  A    between atoms: _171  and  _172
REMARK   73  A    between atoms: _174  and  _176
REMARK   74  A    between atoms: _176  and  _177
REMARK   75  A    between atoms: _176  and  _179
REMARK   76  A    between atoms: _179  and  _180
REMARK   77  A    between atoms: _183  and  _185
REMARK   78  A    between atoms: _185  and  _186
REMARK   79  A    between atoms: _185  and  _188
REMARK   80  A    between atoms: _188  and  _189
REMARK   81  A    between atoms: _189  and  _190
REMARK   82  A    between atoms: _190  and  _191
REMARK   83  A    between atoms: _200  and  _202
REMARK   84  A    between atoms: _202  and  _203
REMARK   85  A    between atoms: _206  and  _208
REMARK   86  A    between atoms: _208  and  _209
REMARK   87  A    between atoms: _208  and  _211
REMARK   88  A    between atoms: _211  and  _212
REMARK   89  A    between atoms: _212  and  _213
REMARK   90  A    between atoms: _213  and  _214
REMARK   91  A    between atoms: _214  and  _215
REMARK   92  A    between atoms: _219  and  _221
REMARK   93  A    between atoms: _221  and  _222
REMARK   94  A    between atoms: _221  and  _224
REMARK   95  A    between atoms: _224  and  _225
REMARK   96  A    between atoms: _228  and  _230
REMARK   97  A    between atoms: _230  and  _231
REMARK   98  A    between atoms: _230  and  _233
REMARK   99  A    between atoms: _233  and  _234
REMARK  100  A    between atoms: _237  and  _239
REMARK  101  A    between atoms: _239  and  _240
REMARK  102  A    between atoms: _239  and  _242
REMARK  103  A    between atoms: _242  and  _243
REMARK  104  A    between atoms: _243  and  _244
REMARK  105  A    between atoms: _246  and  _248
REMARK  106  A    between atoms: _248  and  _249
REMARK  107  A    between atoms: _248  and  _251
REMARK  108  A    between atoms: _251  and  _252
REMARK  109  A    between atoms: _255  and  _257
REMARK  110  A    between atoms: _257  and  _258
REMARK  111  A    between atoms: _261  and  _263
REMARK  112  A    between atoms: _263  and  _264
REMARK  113  A    between atoms: _266  and  _268
REMARK  114  A    between atoms: _268  and  _269
REMARK  115  A    between atoms: _268  and  _271
REMARK  116  A    between atoms: _271  and  _272
REMARK  117  A    between atoms: _272  and  _273
REMARK  118  A    between atoms: _273  and  _274
REMARK  119  A    between atoms: _274  and  _275
REMARK  120  A    between atoms: _279  and  _281
REMARK  121  A    between atoms: _281  and  _282
REMARK  122  A    between atoms: _281  and  _284
REMARK  123  A    between atoms: _284  and  _285
REMARK  124  A    between atoms: _288  and  _290
REMARK  125  A    between atoms: _290  and  _291
REMARK  126  A    between atoms: _290  and  _293
REMARK  127  A    between atoms: _296  and  _298
REMARK  128  A    between atoms: _298  and  _299
REMARK  129  A    between atoms: _298  and  _301
REMARK  130  A    between atoms: _301  and  _302
REMARK  131  A    between atoms: _305  and  _307
REMARK  132  A    between atoms: _307  and  _308
REMARK  133  A    between atoms: _307  and  _310
REMARK  134  A    between atoms: _310  and  _311
REMARK  135  A    between atoms: _314  and  _316
REMARK  136  A    between atoms: _316  and  _317
REMARK  137  A    between atoms: _316  and  _319
REMARK  138  A    between atoms: _319  and  _320
REMARK  139  A    between atoms: _320  and  _321
REMARK  140  A    between atoms: _324  and  _326
REMARK  141  A    between atoms: _326  and  _327
REMARK  142  A    between atoms: _326  and  _329
REMARK  143  A    between atoms: _329  and  _330
REMARK  144  A    between atoms: _333  and  _335
REMARK  145  A    between atoms: _335  and  _336
REMARK  146  A    between atoms: _335  and  _338
REMARK  147  A    between atoms: _341  and  _343
REMARK  148  A    between atoms: _343  and  _344
REMARK  149  A    between atoms: _343  and  _346
REMARK  150  A    between atoms: _346  and  _347
REMARK  151  A    between atoms: _350  and  _352
REMARK  152  A    between atoms: _352  and  _353
REMARK  153  A    between atoms: _352  and  _355
REMARK  154  A    between atoms: _358  and  _360
REMARK  155  A    between atoms: _360  and  _361
REMARK  156  A    between atoms: _360  and  _363
REMARK  157  A    between atoms: _363  and  _364
REMARK  158  A    between atoms: _367  and  _369
REMARK  159  A    between atoms: _369  and  _370
REMARK  160  A    between atoms: _372  and  _374
REMARK  161  A    between atoms: _374  and  _375
REMARK  162  A    between atoms: _374  and  _377
REMARK  163  A    between atoms: _377  and  _378
REMARK  164  A    between atoms: _385  and  _386
REMARK  165  A    between atoms: _391  and  _393
REMARK  166  A    between atoms: _393  and  _394
REMARK  167  A    between atoms: _393  and  _396
REMARK  168  A    between atoms: _396  and  _397
REMARK  169  A    between atoms: _397  and  _398
REMARK  170  A    between atoms: _398  and  _399
REMARK  171  A    between atoms: _408  and  _410
REMARK  172  A    between atoms: _410  and  _411
REMARK  173  A    between atoms: _410  and  _413
REMARK  174  A    between atoms: _413  and  _414
REMARK  175  A    between atoms: _417  and  _419
REMARK  176  A    between atoms: _419  and  _420
REMARK  177  A    between atoms: _419  and  _422
REMARK  178  A    between atoms: _422  and  _423
REMARK  179  A    between atoms: _423  and  _424
REMARK  180  A    between atoms: _429  and  _431
REMARK  181  A    between atoms: _431  and  _432
REMARK  182  A    between atoms: _431  and  _434
REMARK  183  A    between atoms: _434  and  _435
REMARK  184  A    between atoms: _441  and  _443
REMARK  185  A    between atoms: _443  and  _444
REMARK  186  A    between atoms: _443  and  _446
REMARK  187  A    between atoms: _449  and  _451
REMARK  188  A    between atoms: _451  and  _452
REMARK  189  A    between atoms: _451  and  _454
REMARK  190  A    between atoms: _454  and  _455
REMARK  191  A    between atoms: _458  and  _460
REMARK  192  A    between atoms: _460  and  _461
REMARK  193  A    between atoms: _460  and  _463
REMARK  194  A    between atoms: _463  and  _464
REMARK  195  A    between atoms: _467  and  _469
REMARK  196  A    between atoms: _469  and  _470
REMARK  197  A    between atoms: _469  and  _472
REMARK  198  A    between atoms: _475  and  _477
REMARK  199  A    between atoms: _477  and  _478
REMARK  200  A    between atoms: _477  and  _480
REMARK  201  A    between atoms: _480  and  _481
REMARK  202  A    between atoms: _484  and  _486
REMARK  203  A    between atoms: _486  and  _487
REMARK  204  A    between atoms: _486  and  _489
REMARK  205  A    between atoms: _489  and  _490
REMARK  206  A    between atoms: _490  and  _491
REMARK  207  A    between atoms: _491  and  _492
REMARK  208  A    between atoms: _501  and  _503
REMARK  209  A    between atoms: _503  and  _504
REMARK  210  A    between atoms: _503  and  _506
REMARK  211  A    between atoms: _506  and  _507
REMARK  212  A    between atoms: _510  and  _512
REMARK  213  A    between atoms: _512  and  _513
REMARK  214  A    between atoms: _512  and  _515
REMARK  215  A    between atoms: _518  and  _520
REMARK  216  A    between atoms: _520  and  _521
REMARK  217  A    between atoms: _523  and  _525
REMARK  218  A    between atoms: _525  and  _526
REMARK  219  A    between atoms: _525  and  _528
REMARK  220  A    between atoms: _528  and  _529
REMARK  221  A    between atoms: _529  and  _530
REMARK  222  A    between atoms: _530  and  _531
REMARK  223  A    between atoms: _540  and  _542
REMARK  224  A    between atoms: _542  and  _543
REMARK  225  A    between atoms: _542  and  _545
REMARK  226  A    between atoms: _545  and  _546
REMARK  227  A    between atoms: _546  and  _547
REMARK  228  A    between atoms: _547  and  _548
REMARK  229  A    between atoms: _557  and  _559
REMARK  230  A    between atoms: _559  and  _560
REMARK  231  A    between atoms: _559  and  _562
REMARK  232  A    between atoms: _565  and  _567
REMARK  233  A    between atoms: _567  and  _568
REMARK  234  A    between atoms: _570  and  _572
REMARK  235  A    between atoms: _572  and  _573
REMARK  236  A    between atoms: _572  and  _575
REMARK  237  A    between atoms: _575  and  _576
REMARK  238  A    between atoms: _576  and  _577
REMARK  239  A    between atoms: _577  and  _578
REMARK  240  A    between atoms: _587  and  _589
REMARK  241  A    between atoms: _589  and  _590
REMARK  242  A    between atoms: _589  and  _592
REMARK  243  A    between atoms: _595  and  _597
REMARK  244  A    between atoms: _597  and  _598
REMARK  245  A    between atoms: _597  and  _600
REMARK  246  A    between atoms: _600  and  _601
REMARK  247  A    between atoms: _606  and  _607
REMARK  248  A    between atoms: _609  and  _611
REMARK  249  A    between atoms: _611  and  _612
REMARK  250  A    between atoms: _611  and  _614
REMARK  251  A    between atoms: _614  and  _615
REMARK  252  A    between atoms: _620  and  _622
REMARK  253  A    between atoms: _622  and  _623
REMARK  254  A    between atoms: _622  and  _625
REMARK  255  A    between atoms: _628  and  _630
REMARK  256  A    between atoms: _630  and  _631
REMARK  257  A    between atoms: _630  and  _633
REMARK  258  A    between atoms: _633  and  _634
REMARK  259  A    between atoms: _634  and  _635
REMARK  260  A    between atoms: _635  and  _636
REMARK  261  A    between atoms: _636  and  _637
REMARK  262  A    between atoms: _641  and  _643
REMARK  263  A    between atoms: _643  and  _644
REMARK  264  A    between atoms: _643  and  _646
REMARK  265  A    between atoms: _646  and  _647
REMARK  266  A    between atoms: _653  and  _655
REMARK  267  A    between atoms: _655  and  _656
REMARK  268  A    between atoms: _655  and  _658
REMARK  269  A    between atoms: _658  and  _659
REMARK  270  A    between atoms: _665  and  _666
REMARK  271  A    between atoms: _671  and  _673
REMARK  272  A    between atoms: _673  and  _674
REMARK  273  A    between atoms: _673  and  _676
REMARK  274  A    between atoms: _676  and  _677
REMARK  275  A    between atoms: _677  and  _678
REMARK  276  A    between atoms: _678  and  _679
REMARK  277  A    between atoms: _688  and  _690
REMARK  278  A    between atoms: _690  and  _691
REMARK  279  A    between atoms: _690  and  _693
REMARK  280  A    between atoms: _693  and  _694
REMARK  281  A    between atoms: _697  and  _699
REMARK  282  A    between atoms: _699  and  _700
REMARK  283  A    between atoms: _699  and  _702
REMARK  284  A    between atoms: _702  and  _703
REMARK  285  A    between atoms: _706  and  _708
REMARK  286  A    between atoms: _708  and  _709
REMARK  287  A    between atoms: _708  and  _711
REMARK  288  A    between atoms: _711  and  _712
REMARK  289  A    between atoms: _715  and  _717
REMARK  290  A    between atoms: _717  and  _718
REMARK  291  A    between atoms: _717  and  _720
REMARK  292  A    between atoms: _723  and  _725
REMARK  293  A    between atoms: _725  and  _726
REMARK  294  A    between atoms: _725  and  _728
REMARK  295  A    between atoms: _728  and  _729
REMARK  296  A    between atoms: _729  and  _730
REMARK  297  A    between atoms: _730  and  _731
REMARK  298  A    between atoms: _731  and  _732
REMARK  299  A    between atoms: _736  and  _738
REMARK  300  A    between atoms: _738  and  _739
REMARK  301  A    between atoms: _738  and  _741
REMARK  302  A    between atoms: _741  and  _742
REMARK  303  A    between atoms: _742  and  _743
REMARK  304  A    between atoms: _743  and  _744
REMARK  305  A    between atoms: _753  and  _755
REMARK  306  A    between atoms: _755  and  _756
REMARK  307  A    between atoms: _755  and  _758
REMARK  308  A    between atoms: _758  and  _759
REMARK  309  A    between atoms: _762  and  _764
REMARK  310  A    between atoms: _764  and  _765
REMARK  311  A    between atoms: _764  and  _767
REMARK  312  A    between atoms: _767  and  _768
REMARK  313  A    between atoms: _768  and  _769
REMARK  314  A    between atoms: _772  and  _774
REMARK  315  A    between atoms: _774  and  _775
REMARK  316  A    between atoms: _774  and  _777
REMARK  317  A    between atoms: _777  and  _778
REMARK  318  A    between atoms: _788  and  _790
REMARK  319  A    between atoms: _790  and  _791
REMARK  320  A    between atoms: _790  and  _793
REMARK  321  A    between atoms: _793  and  _794
REMARK  322  A    between atoms: _797  and  _799
REMARK  323  A    between atoms: _799  and  _800
REMARK  324  A    between atoms: _799  and  _802
REMARK  325  A    between atoms: _802  and  _803
REMARK  326  A    between atoms: _806  and  _808
REMARK  327  A    between atoms: _808  and  _809
REMARK  328  A    between atoms: _811  and  _813
REMARK  329  A    between atoms: _813  and  _814
REMARK  330  A    between atoms: _813  and  _816
REMARK  331  A    between atoms: _816  and  _817
REMARK  332  A    between atoms: _820  and  _822
REMARK  333  A    between atoms: _822  and  _823
REMARK  334  A    between atoms: _822  and  _825
REMARK  335  A    between atoms: _825  and  _826
REMARK  336  A    between atoms: _826  and  _827
REMARK  337  A    between atoms: _827  and  _828
REMARK  338  A    between atoms: _828  and  _829
REMARK  339  A    between atoms: _834  and  _835
REMARK  340  A    between atoms: _840  and  _842
REMARK  341  A    between atoms: _842  and  _843
REMARK  342  A    between atoms: _842  and  _845
REMARK  343  A    between atoms: _848  and  _850
REMARK  344  A    between atoms: _850  and  _851
REMARK  345  A    between atoms: _854  and  _856
REMARK  346  A    between atoms: _856  and  _857
REMARK  347  A    between atoms: _856  and  _859
REMARK  348  A    between atoms: _859  and  _860
REMARK  349  A    between atoms: _860  and  _861
REMARK  350  A    between atoms: _864  and  _866
REMARK  351  A    between atoms: _866  and  _867
REMARK  352  A    between atoms: _866  and  _869
REMARK  353  A    between atoms: _872  and  _874
REMARK  354  A    between atoms: _874  and  _875
REMARK  355  A    between atoms: _874  and  _877
REMARK  356  A    between atoms: _877  and  _878
REMARK  357  A    between atoms: _878  and  _879
REMARK  358  A    between atoms: _879  and  _880
REMARK                            x       y       z     vdW  Elec       q    Type
REMARK                         _______ _______ _______ _____ _____    ______ ____
ROOT
ATOM      1  O   HOH     1     -22.452  22.604 -27.674  0.00  0.00    +0.000 OA
ENDROOT
TORSDOF 0
REMARK  Name = ../refined-set-2016/4x8o/4x8o_pocket.pdb
REMARK  358 active torsions:
REMARK  status: ('A' for Active; 'I' for Inactive)
REMARK    1  A    between atoms: _1  and  _3
REMARK    2  A    between atoms: _3  and  _4
REMARK    3  A    between atoms: _3  and  _6
REMARK    4  A    between atoms: _6  and  _7
REMARK    5  A    between atoms: _10  and  _12
REMARK    6  A    between atoms: _12  and  _13
REMARK    7  A    between atoms: _12  and  _15
REMARK    8  A    between atoms: _15  and  _16
REMARK    9  A    between atoms: _19  and  _21
REMARK   10  A    between atoms: _21  and  _22
REMARK   11  A    between atoms: _24  and  _26
REMARK   12  A    between atoms: _26  and  _27
REMARK   13  A    between atoms: _31  and  _32
REMARK   14  A    between atoms: _37  and  _39
REMARK   15  A    between atoms: _39  and  _40
REMARK   16  A    between atoms: _42  and  _44
REMARK   17  A    between atoms: _44  and  _45
REMARK   18  A    between atoms: _48  and  _50
REMARK   19  A    between atoms: _50  and  _51
REMARK   20  A    between atoms: _53  and  _55
REMARK   21  A    between atoms: _55  and  _56
REMARK   22  A    between atoms: _55  and  _58
REMARK   23  A    between atoms: _58  and  _59
REMARK   24  A    between atoms: _59  and  _60
REMARK   25  A    between atoms: _60  and  _61
REMARK   26  A    between atoms: _61  and  _62
REMARK   27  A    between atoms: _66  and  _68
REMARK   28  A    between atoms: _68  and  _69
REMARK   29  A    between atoms: _71  and  _73
REMARK   30  A    between atoms: _73  and  _74
REMARK   31  A    between atoms: _73  and  _76
REMARK   32  A    between atoms: _76  and  _77
REMARK   33  A    between atoms: _80  and  _82
REMARK   34  A    between atoms: _82  and  _83
REMARK   35  A    between atoms: _82  and  _85
REMARK   36  A    between atoms: _85  and  _86
REMARK   37  A    between atoms: _86  and  _87
REMARK   38  A    between atoms: _92  and  _94
REMARK   39  A    between atoms: _94  and  _95
REMARK   40  A    between atoms: _98  and  _100
REMARK   41  A    between atoms: _100  and  _101
REMARK   42  A    between atoms: _100  and  _103
REMARK   43  A    between atoms: _103  and  _104
REMARK   44  A    between atoms: _104  and  _105
REMARK   45  A    between atoms: _110  and  _112
REMARK   46  A    between atoms: _112  and  _113
REMARK   47  A    between atoms: _112  and  _115
REMARK   48  A    between atoms: _115  and  _116
REMARK   49  A    between atoms: _122  and  _124
REMARK   50  A    between atoms: _124  and  _125
REMARK   51  A    between atoms: _124  and  _127
REMARK   52  A    between atoms: _127  and  _128
REMARK   53  A    between atoms: _128  and  _129
REMARK   54  A    between atoms: _134  and  _136
REMARK   55  A    between atoms: _136  and  _137
REMARK   56  A    between atoms: _136  and  _139
REMARK   57  A    between atoms: _139  and  _140
REMARK   58  A    between atoms: _142  and  _144
REMARK   59  A    between atoms: _144  and  _145
REMARK   60  A    between atoms: _144  and  _147
REMARK   61  A    between atoms: _147  and  _148
REMARK   62  A    between atoms: _151  and  _153
REMARK   63  A    between atoms: _153  and  _154
REMARK   64  A    between atoms: _156  and  _158
REMARK   65  A    between atoms: _158  and  _159
REMARK   66  A    between atoms: _158  and  _161
REMARK   67  A    between atoms: _161  and  _162
REMARK   68  A    between atoms: _165  and  _167
REMARK   69  A    between atoms: _167  and  _168
REMARK   70  A    between atoms: _167  and  _170
REMARK   71  A    between atoms: _170  and  _171
REMARK   72  A    between atoms: _171  and  _172
REMARK   73  A    between atoms: _174  and  _176
REMARK   74  A    between atoms: _176  and  _177
REMARK   75  A    between atoms: _176  and  _179
REMARK   76  A    between atoms: _179  and  _180
REMARK   77  A    between atoms: _183  and  _185
REMARK   78  A    between atoms: _185  and  _186
REMARK   79  A    between atoms: _185  and  _188
REMARK   80  A    between atoms: _188  and  _189
REMARK   81  A    between atoms: _189  and  _190
REMARK   82  A    between atoms: _190  and  _191
REMARK   83  A    between atoms: _200  and  _202
REMARK   84  A    between atoms: _202  and  _203
REMARK   85  A    between atoms: _206  and  _208
REMARK   86  A    between atoms: _208  and  _209
REMARK   87  A    between atoms: _208  and  _211
REMARK   88  A    between atoms: _211  and  _212
REMARK   89  A    between atoms: _212  and  _213
REMARK   90  A    between atoms: _213  and  _214
REMARK   91  A    between atoms: _214  and  _215
REMARK   92  A    between atoms: _219  and  _221
REMARK   93  A    between atoms: _221  and  _222
REMARK   94  A    between atoms: _221  and  _224
REMARK   95  A    between atoms: _224  and  _225
REMARK   96  A    between atoms: _228  and  _230
REMARK   97  A    between atoms: _230  and  _231
REMARK   98  A    between atoms: _230  and  _233
REMARK   99  A    between atoms: _233  and  _234
REMARK  100  A    between atoms: _237  and  _239
REMARK  101  A    between atoms: _239  and  _240
REMARK  102  A    between atoms: _239  and  _242
REMARK  103  A    between atoms: _242  and  _243
REMARK  104  A    between atoms: _243  and  _244
REMARK  105  A    between atoms: _246  and  _248
REMARK  106  A    between atoms: _248  and  _249
REMARK  107  A    between atoms: _248  and  _251
REMARK  108  A    between atoms: _251  and  _252
REMARK  109  A    between atoms: _255  and  _257
REMARK  110  A    between atoms: _257  and  _258
REMARK  111  A    between atoms: _261  and  _263
REMARK  112  A    between atoms: _263  and  _264
REMARK  113  A    between atoms: _266  and  _268
REMARK  114  A    between atoms: _268  and  _269
REMARK  115  A    between atoms: _268  and  _271
REMARK  116  A    between atoms: _271  and  _272
REMARK  117  A    between atoms: _272  and  _273
REMARK  118  A    between atoms: _273  and  _274
REMARK  119  A    between atoms: _274  and  _275
REMARK  120  A    between atoms: _279  and  _281
REMARK  121  A    between atoms: _281  and  _282
REMARK  122  A    between atoms: _281  and  _284
REMARK  123  A    between atoms: _284  and  _285
REMARK  124  A    between atoms: _288  and  _290
REMARK  125  A    between atoms: _290  and  _291
REMARK  126  A    between atoms: _290  and  _293
REMARK  127  A    between atoms: _296  and  _298
REMARK  128  A    between atoms: _298  and  _299
REMARK  129  A    between atoms: _298  and  _301
REMARK  130  A    between atoms: _301  and  _302
REMARK  131  A    between atoms: _305  and  _307
REMARK  132  A    between atoms: _307  and  _308
REMARK  133  A    between atoms: _307  and  _310
REMARK  134  A    between atoms: _310  and  _311
REMARK  135  A    between atoms: _314  and  _316
REMARK  136  A    between atoms: _316  and  _317
REMARK  137  A    between atoms: _316  and  _319
REMARK  138  A    between atoms: _319  and  _320
REMARK  139  A    between atoms: _320  and  _321
REMARK  140  A    between atoms: _324  and  _326
REMARK  141  A    between atoms: _326  and  _327
REMARK  142  A    between atoms: _326  and  _329
REMARK  143  A    between atoms: _329  and  _330
REMARK  144  A    between atoms: _333  and  _335
REMARK  145  A    between atoms: _335  and  _336
REMARK  146  A    between atoms: _335  and  _338
REMARK  147  A    between atoms: _341  and  _343
REMARK  148  A    between atoms: _343  and  _344
REMARK  149  A    between atoms: _343  and  _346
REMARK  150  A    between atoms: _346  and  _347
REMARK  151  A    between atoms: _350  and  _352
REMARK  152  A    between atoms: _352  and  _353
REMARK  153  A    between atoms: _352  and  _355
REMARK  154  A    between atoms: _358  and  _360
REMARK  155  A    between atoms: _360  and  _361
REMARK  156  A    between atoms: _360  and  _363
REMARK  157  A    between atoms: _363  and  _364
REMARK  158  A    between atoms: _367  and  _369
REMARK  159  A    between atoms: _369  and  _370
REMARK  160  A    between atoms: _372  and  _374
REMARK  161  A    between atoms: _374  and  _375
REMARK  162  A    between atoms: _374  and  _377
REMARK  163  A    between atoms: _377  and  _378
REMARK  164  A    between atoms: _385  and  _386
REMARK  165  A    between atoms: _391  and  _393
REMARK  166  A    between atoms: _393  and  _394
REMARK  167  A    between atoms: _393  and  _396
REMARK  168  A    between atoms: _396  and  _397
REMARK  169  A    between atoms: _397  and  _398
REMARK  170  A    between atoms: _398  and  _399
REMARK  171  A    between atoms: _408  and  _410
REMARK  172  A    between atoms: _410  and  _411
REMARK  173  A    between atoms: _410  and  _413
REMARK  174  A    between atoms: _413  and  _414
REMARK  175  A    between atoms: _417  and  _419
REMARK  176  A    between atoms: _419  and  _420
REMARK  177  A    between atoms: _419  and  _422
REMARK  178  A    between atoms: _422  and  _423
REMARK  179  A    between atoms: _423  and  _424
REMARK  180  A    between atoms: _429  and  _431
REMARK  181  A    between atoms: _431  and  _432
REMARK  182  A    between atoms: _431  and  _434
REMARK  183  A    between atoms: _434  and  _435
REMARK  184  A    between atoms: _441  and  _443
REMARK  185  A    between atoms: _443  and  _444
REMARK  186  A    between atoms: _443  and  _446
REMARK  187  A    between atoms: _449  and  _451
REMARK  188  A    between atoms: _451  and  _452
REMARK  189  A    between atoms: _451  and  _454
REMARK  190  A    between atoms: _454  and  _455
REMARK  191  A    between atoms: _458  and  _460
REMARK  192  A    between atoms: _460  and  _461
REMARK  193  A    between atoms: _460  and  _463
REMARK  194  A    between atoms: _463  and  _464
REMARK  195  A    between atoms: _467  and  _469
REMARK  196  A    between atoms: _469  and  _470
REMARK  197  A    between atoms: _469  and  _472
REMARK  198  A    between atoms: _475  and  _477
REMARK  199  A    between atoms: _477  and  _478
REMARK  200  A    between atoms: _477  and  _480
REMARK  201  A    between atoms: _480  and  _481
REMARK  202  A    between atoms: _484  and  _486
REMARK  203  A    between atoms: _486  and  _487
REMARK  204  A    between atoms: _486  and  _489
REMARK  205  A    between atoms: _489  and  _490
REMARK  206  A    between atoms: _490  and  _491
REMARK  207  A    between atoms: _491  and  _492
REMARK  208  A    between atoms: _501  and  _503
REMARK  209  A    between atoms: _503  and  _504
REMARK  210  A    between atoms: _503  and  _506
REMARK  211  A    between atoms: _506  and  _507
REMARK  212  A    between atoms: _510  and  _512
REMARK  213  A    between atoms: _512  and  _513
REMARK  214  A    between atoms: _512  and  _515
REMARK  215  A    between atoms: _518  and  _520
REMARK  216  A    between atoms: _520  and  _521
REMARK  217  A    between atoms: _523  and  _525
REMARK  218  A    between atoms: _525  and  _526
REMARK  219  A    between atoms: _525  and  _528
REMARK  220  A    between atoms: _528  and  _529
REMARK  221  A    between atoms: _529  and  _530
REMARK  222  A    between atoms: _530  and  _531
REMARK  223  A    between atoms: _540  and  _542
REMARK  224  A    between atoms: _542  and  _543
REMARK  225  A    between atoms: _542  and  _545
REMARK  226  A    between atoms: _545  and  _546
REMARK  227  A    between atoms: _546  and  _547
REMARK  228  A    between atoms: _547  and  _548
REMARK  229  A    between atoms: _557  and  _559
REMARK  230  A    between atoms: _559  and  _560
REMARK  231  A    between atoms: _559  and  _562
REMARK  232  A    between atoms: _565  and  _567
REMARK  233  A    between atoms: _567  and  _568
REMARK  234  A    between atoms: _570  and  _572
REMARK  235  A    between atoms: _572  and  _573
REMARK  236  A    between atoms: _572  and  _575
REMARK  237  A    between atoms: _575  and  _576
REMARK  238  A    between atoms: _576  and  _577
REMARK  239  A    between atoms: _577  and  _578
REMARK  240  A    between atoms: _587  and  _589
REMARK  241  A    between atoms: _589  and  _590
REMARK  242  A    between atoms: _589  and  _592
REMARK  243  A    between atoms: _595  and  _597
REMARK  244  A    between atoms: _597  and  _598
REMARK  245  A    between atoms: _597  and  _600
REMARK  246  A    between atoms: _600  and  _601
REMARK  247  A    between atoms: _606  and  _607
REMARK  248  A    between atoms: _609  and  _611
REMARK  249  A    between atoms: _611  and  _612
REMARK  250  A    between atoms: _611  and  _614
REMARK  251  A    between atoms: _614  and  _615
REMARK  252  A    between atoms: _620  and  _622
REMARK  253  A    between atoms: _622  and  _623
REMARK  254  A    between atoms: _622  and  _625
REMARK  255  A    between atoms: _628  and  _630
REMARK  256  A    between atoms: _630  and  _631
REMARK  257  A    between atoms: _630  and  _633
REMARK  258  A    between atoms: _633  and  _634
REMARK  259  A    between atoms: _634  and  _635
REMARK  260  A    between atoms: _635  and  _636
REMARK  261  A    between atoms: _636  and  _637
REMARK  262  A    between atoms: _641  and  _643
REMARK  263  A    between atoms: _643  and  _644
REMARK  264  A    between atoms: _643  and  _646
REMARK  265  A    between atoms: _646  and  _647
REMARK  266  A    between atoms: _653  and  _655
REMARK  267  A    between atoms: _655  and  _656
REMARK  268  A    between atoms: _655  and  _658
REMARK  269  A    between atoms: _658  and  _659
REMARK  270  A    between atoms: _665  and  _666
REMARK  271  A    between atoms: _671  and  _673
REMARK  272  A    between atoms: _673  and  _674
REMARK  273  A    between atoms: _673  and  _676
REMARK  274  A    between atoms: _676  and  _677
REMARK  275  A    between atoms: _677  and  _678
REMARK  276  A    between atoms: _678  and  _679
REMARK  277  A    between atoms: _688  and  _690
REMARK  278  A    between atoms: _690  and  _691
REMARK  279  A    between atoms: _690  and  _693
REMARK  280  A    between atoms: _693  and  _694
REMARK  281  A    between atoms: _697  and  _699
REMARK  282  A    between atoms: _699  and  _700
REMARK  283  A    between atoms: _699  and  _702
REMARK  284  A    between atoms: _702  and  _703
REMARK  285  A    between atoms: _706  and  _708
REMARK  286  A    between atoms: _708  and  _709
REMARK  287  A    between atoms: _708  and  _711
REMARK  288  A    between atoms: _711  and  _712
REMARK  289  A    between atoms: _715  and  _717
REMARK  290  A    between atoms: _717  and  _718
REMARK  291  A    between atoms: _717  and  _720
REMARK  292  A    between atoms: _723  and  _725
REMARK  293  A    between atoms: _725  and  _726
REMARK  294  A    between atoms: _725  and  _728
REMARK  295  A    between atoms: _728  and  _729
REMARK  296  A    between atoms: _729  and  _730
REMARK  297  A    between atoms: _730  and  _731
REMARK  298  A    between atoms: _731  and  _732
REMARK  299  A    between atoms: _736  and  _738
REMARK  300  A    between atoms: _738  and  _739
REMARK  301  A    between atoms: _738  and  _741
REMARK  302  A    between atoms: _741  and  _742
REMARK  303  A    between atoms: _742  and  _743
REMARK  304  A    between atoms: _743  and  _744
REMARK  305  A    between atoms: _753  and  _755
REMARK  306  A    between atoms: _755  and  _756
REMARK  307  A    between atoms: _755  and  _758
REMARK  308  A    between atoms: _758  and  _759
REMARK  309  A    between atoms: _762  and  _764
REMARK  310  A    between atoms: _764  and  _765
REMARK  311  A    between atoms: _764  and  _767
REMARK  312  A    between atoms: _767  and  _768
REMARK  313  A    between atoms: _768  and  _769
REMARK  314  A    between atoms: _772  and  _774
REMARK  315  A    between atoms: _774  and  _775
REMARK  316  A    between atoms: _774  and  _777
REMARK  317  A    between atoms: _777  and  _778
REMARK  318  A    between atoms: _788  and  _790
REMARK  319  A    between atoms: _790  and  _791
REMARK  320  A    between atoms: _790  and  _793
REMARK  321  A    between atoms: _793  and  _794
REMARK  322  A    between atoms: _797  and  _799
REMARK  323  A    between atoms: _799  and  _800
REMARK  324  A    between atoms: _799  and  _802
REMARK  325  A    between atoms: _802  and  _803
REMARK  326  A    between atoms: _806  and  _808
REMARK  327  A    between atoms: _808  and  _809
REMARK  328  A    between atoms: _811  and  _813
REMARK  329  A    between atoms: _813  and  _814
REMARK  330  A    between atoms: _813  and  _816
REMARK  331  A    between atoms: _816  and  _817
REMARK  332  A    between atoms: _820  and  _822
REMARK  333  A    between atoms: _822  and  _823
REMARK  334  A    between atoms: _822  and  _825
REMARK  335  A    between atoms: _825  and  _826
REMARK  336  A    between atoms: _826  and  _827
REMARK  337  A    between atoms: _827  and  _828
REMARK  338  A    between atoms: _828  and  _829
REMARK  339  A    between atoms: _834  and  _835
REMARK  340  A    between atoms: _840  and  _842
REMARK  341  A    between atoms: _842  and  _843
REMARK  342  A    between atoms: _842  and  _845
REMARK  343  A    between atoms: _848  and  _850
REMARK  344  A    between atoms: _850  and  _851
REMARK  345  A    between atoms: _854  and  _856
REMARK  346  A    between atoms: _856  and  _857
REMARK  347  A    between atoms: _856  and  _859
REMARK  348  A    between atoms: _859  and  _860
REMARK  349  A    between atoms: _860  and  _861
REMARK  350  A    between atoms: _864  and  _866
REMARK  351  A    between atoms: _866  and  _867
REMARK  352  A    between atoms: _866  and  _869
REMARK  353  A    between atoms: _872  and  _874
REMARK  354  A    between atoms: _874  and  _875
REMARK  355  A    between atoms: _874  and  _877
REMARK  356  A    between atoms: _877  and  _878
REMARK  357  A    between atoms: _878  and  _879
REMARK  358  A    between atoms: _879  and  _880
REMARK                            x       y       z     vdW  Elec       q    Type
REMARK                         _______ _______ _______ _____ _____    ______ ____
ROOT
ATOM      1  O   HOH     1     -29.169  13.559 -30.859  0.00  0.00    +0.000 OA
ENDROOT
TORSDOF 0
REMARK  Name = ../refined-set-2016/4x8o/4x8o_pocket.pdb
REMARK  358 active torsions:
REMARK  status: ('A' for Active; 'I' for Inactive)
REMARK    1  A    between atoms: _1  and  _3
REMARK    2  A    between atoms: _3  and  _4
REMARK    3  A    between atoms: _3  and  _6
REMARK    4  A    between atoms: _6  and  _7
REMARK    5  A    between atoms: _10  and  _12
REMARK    6  A    between atoms: _12  and  _13
REMARK    7  A    between atoms: _12  and  _15
REMARK    8  A    between atoms: _15  and  _16
REMARK    9  A    between atoms: _19  and  _21
REMARK   10  A    between atoms: _21  and  _22
REMARK   11  A    between atoms: _24  and  _26
REMARK   12  A    between atoms: _26  and  _27
REMARK   13  A    between atoms: _31  and  _32
REMARK   14  A    between atoms: _37  and  _39
REMARK   15  A    between atoms: _39  and  _40
REMARK   16  A    between atoms: _42  and  _44
REMARK   17  A    between atoms: _44  and  _45
REMARK   18  A    between atoms: _48  and  _50
REMARK   19  A    between atoms: _50  and  _51
REMARK   20  A    between atoms: _53  and  _55
REMARK   21  A    between atoms: _55  and  _56
REMARK   22  A    between atoms: _55  and  _58
REMARK   23  A    between atoms: _58  and  _59
REMARK   24  A    between atoms: _59  and  _60
REMARK   25  A    between atoms: _60  and  _61
REMARK   26  A    between atoms: _61  and  _62
REMARK   27  A    between atoms: _66  and  _68
REMARK   28  A    between atoms: _68  and  _69
REMARK   29  A    between atoms: _71  and  _73
REMARK   30  A    between atoms: _73  and  _74
REMARK   31  A    between atoms: _73  and  _76
REMARK   32  A    between atoms: _76  and  _77
REMARK   33  A    between atoms: _80  and  _82
REMARK   34  A    between atoms: _82  and  _83
REMARK   35  A    between atoms: _82  and  _85
REMARK   36  A    between atoms: _85  and  _86
REMARK   37  A    between atoms: _86  and  _87
REMARK   38  A    between atoms: _92  and  _94
REMARK   39  A    between atoms: _94  and  _95
REMARK   40  A    between atoms: _98  and  _100
REMARK   41  A    between atoms: _100  and  _101
REMARK   42  A    between atoms: _100  and  _103
REMARK   43  A    between atoms: _103  and  _104
REMARK   44  A    between atoms: _104  and  _105
REMARK   45  A    between atoms: _110  and  _112
REMARK   46  A    between atoms: _112  and  _113
REMARK   47  A    between atoms: _112  and  _115
REMARK   48  A    between atoms: _115  and  _116
REMARK   49  A    between atoms: _122  and  _124
REMARK   50  A    between atoms: _124  and  _125
REMARK   51  A    between atoms: _124  and  _127
REMARK   52  A    between atoms: _127  and  _128
REMARK   53  A    between atoms: _128  and  _129
REMARK   54  A    between atoms: _134  and  _136
REMARK   55  A    between atoms: _136  and  _137
REMARK   56  A    between atoms: _136  and  _139
REMARK   57  A    between atoms: _139  and  _140
REMARK   58  A    between atoms: _142  and  _144
REMARK   59  A    between atoms: _144  and  _145
REMARK   60  A    between atoms: _144  and  _147
REMARK   61  A    between atoms: _147  and  _148
REMARK   62  A    between atoms: _151  and  _153
REMARK   63  A    between atoms: _153  and  _154
REMARK   64  A    between atoms: _156  and  _158
REMARK   65  A    between atoms: _158  and  _159
REMARK   66  A    between atoms: _158  and  _161
REMARK   67  A    between atoms: _161  and  _162
REMARK   68  A    between atoms: _165  and  _167
REMARK   69  A    between atoms: _167  and  _168
REMARK   70  A    between atoms: _167  and  _170
REMARK   71  A    between atoms: _170  and  _171
REMARK   72  A    between atoms: _171  and  _172
REMARK   73  A    between atoms: _174  and  _176
REMARK   74  A    between atoms: _176  and  _177
REMARK   75  A    between atoms: _176  and  _179
REMARK   76  A    between atoms: _179  and  _180
REMARK   77  A    between atoms: _183  and  _185
REMARK   78  A    between atoms: _185  and  _186
REMARK   79  A    between atoms: _185  and  _188
REMARK   80  A    between atoms: _188  and  _189
REMARK   81  A    between atoms: _189  and  _190
REMARK   82  A    between atoms: _190  and  _191
REMARK   83  A    between atoms: _200  and  _202
REMARK   84  A    between atoms: _202  and  _203
REMARK   85  A    between atoms: _206  and  _208
REMARK   86  A    between atoms: _208  and  _209
REMARK   87  A    between atoms: _208  and  _211
REMARK   88  A    between atoms: _211  and  _212
REMARK   89  A    between atoms: _212  and  _213
REMARK   90  A    between atoms: _213  and  _214
REMARK   91  A    between atoms: _214  and  _215
REMARK   92  A    between atoms: _219  and  _221
REMARK   93  A    between atoms: _221  and  _222
REMARK   94  A    between atoms: _221  and  _224
REMARK   95  A    between atoms: _224  and  _225
REMARK   96  A    between atoms: _228  and  _230
REMARK   97  A    between atoms: _230  and  _231
REMARK   98  A    between atoms: _230  and  _233
REMARK   99  A    between atoms: _233  and  _234
REMARK  100  A    between atoms: _237  and  _239
REMARK  101  A    between atoms: _239  and  _240
REMARK  102  A    between atoms: _239  and  _242
REMARK  103  A    between atoms: _242  and  _243
REMARK  104  A    between atoms: _243  and  _244
REMARK  105  A    between atoms: _246  and  _248
REMARK  106  A    between atoms: _248  and  _249
REMARK  107  A    between atoms: _248  and  _251
REMARK  108  A    between atoms: _251  and  _252
REMARK  109  A    between atoms: _255  and  _257
REMARK  110  A    between atoms: _257  and  _258
REMARK  111  A    between atoms: _261  and  _263
REMARK  112  A    between atoms: _263  and  _264
REMARK  113  A    between atoms: _266  and  _268
REMARK  114  A    between atoms: _268  and  _269
REMARK  115  A    between atoms: _268  and  _271
REMARK  116  A    between atoms: _271  and  _272
REMARK  117  A    between atoms: _272  and  _273
REMARK  118  A    between atoms: _273  and  _274
REMARK  119  A    between atoms: _274  and  _275
REMARK  120  A    between atoms: _279  and  _281
REMARK  121  A    between atoms: _281  and  _282
REMARK  122  A    between atoms: _281  and  _284
REMARK  123  A    between atoms: _284  and  _285
REMARK  124  A    between atoms: _288  and  _290
REMARK  125  A    between atoms: _290  and  _291
REMARK  126  A    between atoms: _290  and  _293
REMARK  127  A    between atoms: _296  and  _298
REMARK  128  A    between atoms: _298  and  _299
REMARK  129  A    between atoms: _298  and  _301
REMARK  130  A    between atoms: _301  and  _302
REMARK  131  A    between atoms: _305  and  _307
REMARK  132  A    between atoms: _307  and  _308
REMARK  133  A    between atoms: _307  and  _310
REMARK  134  A    between atoms: _310  and  _311
REMARK  135  A    between atoms: _314  and  _316
REMARK  136  A    between atoms: _316  and  _317
REMARK  137  A    between atoms: _316  and  _319
REMARK  138  A    between atoms: _319  and  _320
REMARK  139  A    between atoms: _320  and  _321
REMARK  140  A    between atoms: _324  and  _326
REMARK  141  A    between atoms: _326  and  _327
REMARK  142  A    between atoms: _326  and  _329
REMARK  143  A    between atoms: _329  and  _330
REMARK  144  A    between atoms: _333  and  _335
REMARK  145  A    between atoms: _335  and  _336
REMARK  146  A    between atoms: _335  and  _338
REMARK  147  A    between atoms: _341  and  _343
REMARK  148  A    between atoms: _343  and  _344
REMARK  149  A    between atoms: _343  and  _346
REMARK  150  A    between atoms: _346  and  _347
REMARK  151  A    between atoms: _350  and  _352
REMARK  152  A    between atoms: _352  and  _353
REMARK  153  A    between atoms: _352  and  _355
REMARK  154  A    between atoms: _358  and  _360
REMARK  155  A    between atoms: _360  and  _361
REMARK  156  A    between atoms: _360  and  _363
REMARK  157  A    between atoms: _363  and  _364
REMARK  158  A    between atoms: _367  and  _369
REMARK  159  A    between atoms: _369  and  _370
REMARK  160  A    between atoms: _372  and  _374
REMARK  161  A    between atoms: _374  and  _375
REMARK  162  A    between atoms: _374  and  _377
REMARK  163  A    between atoms: _377  and  _378
REMARK  164  A    between atoms: _385  and  _386
REMARK  165  A    between atoms: _391  and  _393
REMARK  166  A    between atoms: _393  and  _394
REMARK  167  A    between atoms: _393  and  _396
REMARK  168  A    between atoms: _396  and  _397
REMARK  169  A    between atoms: _397  and  _398
REMARK  170  A    between atoms: _398  and  _399
REMARK  171  A    between atoms: _408  and  _410
REMARK  172  A    between atoms: _410  and  _411
REMARK  173  A    between atoms: _410  and  _413
REMARK  174  A    between atoms: _413  and  _414
REMARK  175  A    between atoms: _417  and  _419
REMARK  176  A    between atoms: _419  and  _420
REMARK  177  A    between atoms: _419  and  _422
REMARK  178  A    between atoms: _422  and  _423
REMARK  179  A    between atoms: _423  and  _424
REMARK  180  A    between atoms: _429  and  _431
REMARK  181  A    between atoms: _431  and  _432
REMARK  182  A    between atoms: _431  and  _434
REMARK  183  A    between atoms: _434  and  _435
REMARK  184  A    between atoms: _441  and  _443
REMARK  185  A    between atoms: _443  and  _444
REMARK  186  A    between atoms: _443  and  _446
REMARK  187  A    between atoms: _449  and  _451
REMARK  188  A    between atoms: _451  and  _452
REMARK  189  A    between atoms: _451  and  _454
REMARK  190  A    between atoms: _454  and  _455
REMARK  191  A    between atoms: _458  and  _460
REMARK  192  A    between atoms: _460  and  _461
REMARK  193  A    between atoms: _460  and  _463
REMARK  194  A    between atoms: _463  and  _464
REMARK  195  A    between atoms: _467  and  _469
REMARK  196  A    between atoms: _469  and  _470
REMARK  197  A    between atoms: _469  and  _472
REMARK  198  A    between atoms: _475  and  _477
REMARK  199  A    between atoms: _477  and  _478
REMARK  200  A    between atoms: _477  and  _480
REMARK  201  A    between atoms: _480  and  _481
REMARK  202  A    between atoms: _484  and  _486
REMARK  203  A    between atoms: _486  and  _487
REMARK  204  A    between atoms: _486  and  _489
REMARK  205  A    between atoms: _489  and  _490
REMARK  206  A    between atoms: _490  and  _491
REMARK  207  A    between atoms: _491  and  _492
REMARK  208  A    between atoms: _501  and  _503
REMARK  209  A    between atoms: _503  and  _504
REMARK  210  A    between atoms: _503  and  _506
REMARK  211  A    between atoms: _506  and  _507
REMARK  212  A    between atoms: _510  and  _512
REMARK  213  A    between atoms: _512  and  _513
REMARK  214  A    between atoms: _512  and  _515
REMARK  215  A    between atoms: _518  and  _520
REMARK  216  A    between atoms: _520  and  _521
REMARK  217  A    between atoms: _523  and  _525
REMARK  218  A    between atoms: _525  and  _526
REMARK  219  A    between atoms: _525  and  _528
REMARK  220  A    between atoms: _528  and  _529
REMARK  221  A    between atoms: _529  and  _530
REMARK  222  A    between atoms: _530  and  _531
REMARK  223  A    between atoms: _540  and  _542
REMARK  224  A    between atoms: _542  and  _543
REMARK  225  A    between atoms: _542  and  _545
REMARK  226  A    between atoms: _545  and  _546
REMARK  227  A    between atoms: _546  and  _547
REMARK  228  A    between atoms: _547  and  _548
REMARK  229  A    between atoms: _557  and  _559
REMARK  230  A    between atoms: _559  and  _560
REMARK  231  A    between atoms: _559  and  _562
REMARK  232  A    between atoms: _565  and  _567
REMARK  233  A    between atoms: _567  and  _568
REMARK  234  A    between atoms: _570  and  _572
REMARK  235  A    between atoms: _572  and  _573
REMARK  236  A    between atoms: _572  and  _575
REMARK  237  A    between atoms: _575  and  _576
REMARK  238  A    between atoms: _576  and  _577
REMARK  239  A    between atoms: _577  and  _578
REMARK  240  A    between atoms: _587  and  _589
REMARK  241  A    between atoms: _589  and  _590
REMARK  242  A    between atoms: _589  and  _592
REMARK  243  A    between atoms: _595  and  _597
REMARK  244  A    between atoms: _597  and  _598
REMARK  245  A    between atoms: _597  and  _600
REMARK  246  A    between atoms: _600  and  _601
REMARK  247  A    between atoms: _606  and  _607
REMARK  248  A    between atoms: _609  and  _611
REMARK  249  A    between atoms: _611  and  _612
REMARK  250  A    between atoms: _611  and  _614
REMARK  251  A    between atoms: _614  and  _615
REMARK  252  A    between atoms: _620  and  _622
REMARK  253  A    between atoms: _622  and  _623
REMARK  254  A    between atoms: _622  and  _625
REMARK  255  A    between atoms: _628  and  _630
REMARK  256  A    between atoms: _630  and  _631
REMARK  257  A    between atoms: _630  and  _633
REMARK  258  A    between atoms: _633  and  _634
REMARK  259  A    between atoms: _634  and  _635
REMARK  260  A    between atoms: _635  and  _636
REMARK  261  A    between atoms: _636  and  _637
REMARK  262  A    between atoms: _641  and  _643
REMARK  263  A    between atoms: _643  and  _644
REMARK  264  A    between atoms: _643  and  _646
REMARK  265  A    between atoms: _646  and  _647
REMARK  266  A    between atoms: _653  and  _655
REMARK  267  A    between atoms: _655  and  _656
REMARK  268  A    between atoms: _655  and  _658
REMARK  269  A    between atoms: _658  and  _659
REMARK  270  A    between atoms: _665  and  _666
REMARK  271  A    between atoms: _671  and  _673
REMARK  272  A    between atoms: _673  and  _674
REMARK  273  A    between atoms: _673  and  _676
REMARK  274  A    between atoms: _676  and  _677
REMARK  275  A    between atoms: _677  and  _678
REMARK  276  A    between atoms: _678  and  _679
REMARK  277  A    between atoms: _688  and  _690
REMARK  278  A    between atoms: _690  and  _691
REMARK  279  A    between atoms: _690  and  _693
REMARK  280  A    between atoms: _693  and  _694
REMARK  281  A    between atoms: _697  and  _699
REMARK  282  A    between atoms: _699  and  _700
REMARK  283  A    between atoms: _699  and  _702
REMARK  284  A    between atoms: _702  and  _703
REMARK  285  A    between atoms: _706  and  _708
REMARK  286  A    between atoms: _708  and  _709
REMARK  287  A    between atoms: _708  and  _711
REMARK  288  A    between atoms: _711  and  _712
REMARK  289  A    between atoms: _715  and  _717
REMARK  290  A    between atoms: _717  and  _718
REMARK  291  A    between atoms: _717  and  _720
REMARK  292  A    between atoms: _723  and  _725
REMARK  293  A    between atoms: _725  and  _726
REMARK  294  A    between atoms: _725  and  _728
REMARK  295  A    between atoms: _728  and  _729
REMARK  296  A    between atoms: _729  and  _730
REMARK  297  A    between atoms: _730  and  _731
REMARK  298  A    between atoms: _731  and  _732
REMARK  299  A    between atoms: _736  and  _738
REMARK  300  A    between atoms: _738  and  _739
REMARK  301  A    between atoms: _738  and  _741
REMARK  302  A    between atoms: _741  and  _742
REMARK  303  A    between atoms: _742  and  _743
REMARK  304  A    between atoms: _743  and  _744
REMARK  305  A    between atoms: _753  and  _755
REMARK  306  A    between atoms: _755  and  _756
REMARK  307  A    between atoms: _755  and  _758
REMARK  308  A    between atoms: _758  and  _759
REMARK  309  A    between atoms: _762  and  _764
REMARK  310  A    between atoms: _764  and  _765
REMARK  311  A    between atoms: _764  and  _767
REMARK  312  A    between atoms: _767  and  _768
REMARK  313  A    between atoms: _768  and  _769
REMARK  314  A    between atoms: _772  and  _774
REMARK  315  A    between atoms: _774  and  _775
REMARK  316  A    between atoms: _774  and  _777
REMARK  317  A    between atoms: _777  and  _778
REMARK  318  A    between atoms: _788  and  _790
REMARK  319  A    between atoms: _790  and  _791
REMARK  320  A    between atoms: _790  and  _793
REMARK  321  A    between atoms: _793  and  _794
REMARK  322  A    between atoms: _797  and  _799
REMARK  323  A    between atoms: _799  and  _800
REMARK  324  A    between atoms: _799  and  _802
REMARK  325  A    between atoms: _802  and  _803
REMARK  326  A    between atoms: _806  and  _808
REMARK  327  A    between atoms: _808  and  _809
REMARK  328  A    between atoms: _811  and  _813
REMARK  329  A    between atoms: _813  and  _814
REMARK  330  A    between atoms: _813  and  _816
REMARK  331  A    between atoms: _816  and  _817
REMARK  332  A    between atoms: _820  and  _822
REMARK  333  A    between atoms: _822  and  _823
REMARK  334  A    between atoms: _822  and  _825
REMARK  335  A    between atoms: _825  and  _826
REMARK  336  A    between atoms: _826  and  _827
REMARK  337  A    between atoms: _827  and  _828
REMARK  338  A    between atoms: _828  and  _829
REMARK  339  A    between atoms: _834  and  _835
REMARK  340  A    between atoms: _840  and  _842
REMARK  341  A    between atoms: _842  and  _843
REMARK  342  A    between atoms: _842  and  _845
REMARK  343  A    between atoms: _848  and  _850
REMARK  344  A    between atoms: _850  and  _851
REMARK  345  A    between atoms: _854  and  _856
REMARK  346  A    between atoms: _856  and  _857
REMARK  347  A    between atoms: _856  and  _859
REMARK  348  A    between atoms: _859  and  _860
REMARK  349  A    between atoms: _860  and  _861
REMARK  350  A    between atoms: _864  and  _866
REMARK  351  A    between atoms: _866  and  _867
REMARK  352  A    between atoms: _866  and  _869
REMARK  353  A    between atoms: _872  and  _874
REMARK  354  A    between atoms: _874  and  _875
REMARK  355  A    between atoms: _874  and  _877
REMARK  356  A    between atoms: _877  and  _878
REMARK  357  A    between atoms: _878  and  _879
REMARK  358  A    between atoms: _879  and  _880
REMARK                            x       y       z     vdW  Elec       q    Type
REMARK                         _______ _______ _______ _____ _____    ______ ____
ROOT
ATOM      1  O   HOH     1     -27.891  26.532 -30.587  0.00  0.00    +0.000 OA
ENDROOT
TORSDOF 0
REMARK  Name = ../refined-set-2016/4x8o/4x8o_pocket.pdb
REMARK  358 active torsions:
REMARK  status: ('A' for Active; 'I' for Inactive)
REMARK    1  A    between atoms: _1  and  _3
REMARK    2  A    between atoms: _3  and  _4
REMARK    3  A    between atoms: _3  and  _6
REMARK    4  A    between atoms: _6  and  _7
REMARK    5  A    between atoms: _10  and  _12
REMARK    6  A    between atoms: _12  and  _13
REMARK    7  A    between atoms: _12  and  _15
REMARK    8  A    between atoms: _15  and  _16
REMARK    9  A    between atoms: _19  and  _21
REMARK   10  A    between atoms: _21  and  _22
REMARK   11  A    between atoms: _24  and  _26
REMARK   12  A    between atoms: _26  and  _27
REMARK   13  A    between atoms: _31  and  _32
REMARK   14  A    between atoms: _37  and  _39
REMARK   15  A    between atoms: _39  and  _40
REMARK   16  A    between atoms: _42  and  _44
REMARK   17  A    between atoms: _44  and  _45
REMARK   18  A    between atoms: _48  and  _50
REMARK   19  A    between atoms: _50  and  _51
REMARK   20  A    between atoms: _53  and  _55
REMARK   21  A    between atoms: _55  and  _56
REMARK   22  A    between atoms: _55  and  _58
REMARK   23  A    between atoms: _58  and  _59
REMARK   24  A    between atoms: _59  and  _60
REMARK   25  A    between atoms: _60  and  _61
REMARK   26  A    between atoms: _61  and  _62
REMARK   27  A    between atoms: _66  and  _68
REMARK   28  A    between atoms: _68  and  _69
REMARK   29  A    between atoms: _71  and  _73
REMARK   30  A    between atoms: _73  and  _74
REMARK   31  A    between atoms: _73  and  _76
REMARK   32  A    between atoms: _76  and  _77
REMARK   33  A    between atoms: _80  and  _82
REMARK   34  A    between atoms: _82  and  _83
REMARK   35  A    between atoms: _82  and  _85
REMARK   36  A    between atoms: _85  and  _86
REMARK   37  A    between atoms: _86  and  _87
REMARK   38  A    between atoms: _92  and  _94
REMARK   39  A    between atoms: _94  and  _95
REMARK   40  A    between atoms: _98  and  _100
REMARK   41  A    between atoms: _100  and  _101
REMARK   42  A    between atoms: _100  and  _103
REMARK   43  A    between atoms: _103  and  _104
REMARK   44  A    between atoms: _104  and  _105
REMARK   45  A    between atoms: _110  and  _112
REMARK   46  A    between atoms: _112  and  _113
REMARK   47  A    between atoms: _112  and  _115
REMARK   48  A    between atoms: _115  and  _116
REMARK   49  A    between atoms: _122  and  _124
REMARK   50  A    between atoms: _124  and  _125
REMARK   51  A    between atoms: _124  and  _127
REMARK   52  A    between atoms: _127  and  _128
REMARK   53  A    between atoms: _128  and  _129
REMARK   54  A    between atoms: _134  and  _136
REMARK   55  A    between atoms: _136  and  _137
REMARK   56  A    between atoms: _136  and  _139
REMARK   57  A    between atoms: _139  and  _140
REMARK   58  A    between atoms: _142  and  _144
REMARK   59  A    between atoms: _144  and  _145
REMARK   60  A    between atoms: _144  and  _147
REMARK   61  A    between atoms: _147  and  _148
REMARK   62  A    between atoms: _151  and  _153
REMARK   63  A    between atoms: _153  and  _154
REMARK   64  A    between atoms: _156  and  _158
REMARK   65  A    between atoms: _158  and  _159
REMARK   66  A    between atoms: _158  and  _161
REMARK   67  A    between atoms: _161  and  _162
REMARK   68  A    between atoms: _165  and  _167
REMARK   69  A    between atoms: _167  and  _168
REMARK   70  A    between atoms: _167  and  _170
REMARK   71  A    between atoms: _170  and  _171
REMARK   72  A    between atoms: _171  and  _172
REMARK   73  A    between atoms: _174  and  _176
REMARK   74  A    between atoms: _176  and  _177
REMARK   75  A    between atoms: _176  and  _179
REMARK   76  A    between atoms: _179  and  _180
REMARK   77  A    between atoms: _183  and  _185
REMARK   78  A    between atoms: _185  and  _186
REMARK   79  A    between atoms: _185  and  _188
REMARK   80  A    between atoms: _188  and  _189
REMARK   81  A    between atoms: _189  and  _190
REMARK   82  A    between atoms: _190  and  _191
REMARK   83  A    between atoms: _200  and  _202
REMARK   84  A    between atoms: _202  and  _203
REMARK   85  A    between atoms: _206  and  _208
REMARK   86  A    between atoms: _208  and  _209
REMARK   87  A    between atoms: _208  and  _211
REMARK   88  A    between atoms: _211  and  _212
REMARK   89  A    between atoms: _212  and  _213
REMARK   90  A    between atoms: _213  and  _214
REMARK   91  A    between atoms: _214  and  _215
REMARK   92  A    between atoms: _219  and  _221
REMARK   93  A    between atoms: _221  and  _222
REMARK   94  A    between atoms: _221  and  _224
REMARK   95  A    between atoms: _224  and  _225
REMARK   96  A    between atoms: _228  and  _230
REMARK   97  A    between atoms: _230  and  _231
REMARK   98  A    between atoms: _230  and  _233
REMARK   99  A    between atoms: _233  and  _234
REMARK  100  A    between atoms: _237  and  _239
REMARK  101  A    between atoms: _239  and  _240
REMARK  102  A    between atoms: _239  and  _242
REMARK  103  A    between atoms: _242  and  _243
REMARK  104  A    between atoms: _243  and  _244
REMARK  105  A    between atoms: _246  and  _248
REMARK  106  A    between atoms: _248  and  _249
REMARK  107  A    between atoms: _248  and  _251
REMARK  108  A    between atoms: _251  and  _252
REMARK  109  A    between atoms: _255  and  _257
REMARK  110  A    between atoms: _257  and  _258
REMARK  111  A    between atoms: _261  and  _263
REMARK  112  A    between atoms: _263  and  _264
REMARK  113  A    between atoms: _266  and  _268
REMARK  114  A    between atoms: _268  and  _269
REMARK  115  A    between atoms: _268  and  _271
REMARK  116  A    between atoms: _271  and  _272
REMARK  117  A    between atoms: _272  and  _273
REMARK  118  A    between atoms: _273  and  _274
REMARK  119  A    between atoms: _274  and  _275
REMARK  120  A    between atoms: _279  and  _281
REMARK  121  A    between atoms: _281  and  _282
REMARK  122  A    between atoms: _281  and  _284
REMARK  123  A    between atoms: _284  and  _285
REMARK  124  A    between atoms: _288  and  _290
REMARK  125  A    between atoms: _290  and  _291
REMARK  126  A    between atoms: _290  and  _293
REMARK  127  A    between atoms: _296  and  _298
REMARK  128  A    between atoms: _298  and  _299
REMARK  129  A    between atoms: _298  and  _301
REMARK  130  A    between atoms: _301  and  _302
REMARK  131  A    between atoms: _305  and  _307
REMARK  132  A    between atoms: _307  and  _308
REMARK  133  A    between atoms: _307  and  _310
REMARK  134  A    between atoms: _310  and  _311
REMARK  135  A    between atoms: _314  and  _316
REMARK  136  A    between atoms: _316  and  _317
REMARK  137  A    between atoms: _316  and  _319
REMARK  138  A    between atoms: _319  and  _320
REMARK  139  A    between atoms: _320  and  _321
REMARK  140  A    between atoms: _324  and  _326
REMARK  141  A    between atoms: _326  and  _327
REMARK  142  A    between atoms: _326  and  _329
REMARK  143  A    between atoms: _329  and  _330
REMARK  144  A    between atoms: _333  and  _335
REMARK  145  A    between atoms: _335  and  _336
REMARK  146  A    between atoms: _335  and  _338
REMARK  147  A    between atoms: _341  and  _343
REMARK  148  A    between atoms: _343  and  _344
REMARK  149  A    between atoms: _343  and  _346
REMARK  150  A    between atoms: _346  and  _347
REMARK  151  A    between atoms: _350  and  _352
REMARK  152  A    between atoms: _352  and  _353
REMARK  153  A    between atoms: _352  and  _355
REMARK  154  A    between atoms: _358  and  _360
REMARK  155  A    between atoms: _360  and  _361
REMARK  156  A    between atoms: _360  and  _363
REMARK  157  A    between atoms: _363  and  _364
REMARK  158  A    between atoms: _367  and  _369
REMARK  159  A    between atoms: _369  and  _370
REMARK  160  A    between atoms: _372  and  _374
REMARK  161  A    between atoms: _374  and  _375
REMARK  162  A    between atoms: _374  and  _377
REMARK  163  A    between atoms: _377  and  _378
REMARK  164  A    between atoms: _385  and  _386
REMARK  165  A    between atoms: _391  and  _393
REMARK  166  A    between atoms: _393  and  _394
REMARK  167  A    between atoms: _393  and  _396
REMARK  168  A    between atoms: _396  and  _397
REMARK  169  A    between atoms: _397  and  _398
REMARK  170  A    between atoms: _398  and  _399
REMARK  171  A    between atoms: _408  and  _410
REMARK  172  A    between atoms: _410  and  _411
REMARK  173  A    between atoms: _410  and  _413
REMARK  174  A    between atoms: _413  and  _414
REMARK  175  A    between atoms: _417  and  _419
REMARK  176  A    between atoms: _419  and  _420
REMARK  177  A    between atoms: _419  and  _422
REMARK  178  A    between atoms: _422  and  _423
REMARK  179  A    between atoms: _423  and  _424
REMARK  180  A    between atoms: _429  and  _431
REMARK  181  A    between atoms: _431  and  _432
REMARK  182  A    between atoms: _431  and  _434
REMARK  183  A    between atoms: _434  and  _435
REMARK  184  A    between atoms: _441  and  _443
REMARK  185  A    between atoms: _443  and  _444
REMARK  186  A    between atoms: _443  and  _446
REMARK  187  A    between atoms: _449  and  _451
REMARK  188  A    between atoms: _451  and  _452
REMARK  189  A    between atoms: _451  and  _454
REMARK  190  A    between atoms: _454  and  _455
REMARK  191  A    between atoms: _458  and  _460
REMARK  192  A    between atoms: _460  and  _461
REMARK  193  A    between atoms: _460  and  _463
REMARK  194  A    between atoms: _463  and  _464
REMARK  195  A    between atoms: _467  and  _469
REMARK  196  A    between atoms: _469  and  _470
REMARK  197  A    between atoms: _469  and  _472
REMARK  198  A    between atoms: _475  and  _477
REMARK  199  A    between atoms: _477  and  _478
REMARK  200  A    between atoms: _477  and  _480
REMARK  201  A    between atoms: _480  and  _481
REMARK  202  A    between atoms: _484  and  _486
REMARK  203  A    between atoms: _486  and  _487
REMARK  204  A    between atoms: _486  and  _489
REMARK  205  A    between atoms: _489  and  _490
REMARK  206  A    between atoms: _490  and  _491
REMARK  207  A    between atoms: _491  and  _492
REMARK  208  A    between atoms: _501  and  _503
REMARK  209  A    between atoms: _503  and  _504
REMARK  210  A    between atoms: _503  and  _506
REMARK  211  A    between atoms: _506  and  _507
REMARK  212  A    between atoms: _510  and  _512
REMARK  213  A    between atoms: _512  and  _513
REMARK  214  A    between atoms: _512  and  _515
REMARK  215  A    between atoms: _518  and  _520
REMARK  216  A    between atoms: _520  and  _521
REMARK  217  A    between atoms: _523  and  _525
REMARK  218  A    between atoms: _525  and  _526
REMARK  219  A    between atoms: _525  and  _528
REMARK  220  A    between atoms: _528  and  _529
REMARK  221  A    between atoms: _529  and  _530
REMARK  222  A    between atoms: _530  and  _531
REMARK  223  A    between atoms: _540  and  _542
REMARK  224  A    between atoms: _542  and  _543
REMARK  225  A    between atoms: _542  and  _545
REMARK  226  A    between atoms: _545  and  _546
REMARK  227  A    between atoms: _546  and  _547
REMARK  228  A    between atoms: _547  and  _548
REMARK  229  A    between atoms: _557  and  _559
REMARK  230  A    between atoms: _559  and  _560
REMARK  231  A    between atoms: _559  and  _562
REMARK  232  A    between atoms: _565  and  _567
REMARK  233  A    between atoms: _567  and  _568
REMARK  234  A    between atoms: _570  and  _572
REMARK  235  A    between atoms: _572  and  _573
REMARK  236  A    between atoms: _572  and  _575
REMARK  237  A    between atoms: _575  and  _576
REMARK  238  A    between atoms: _576  and  _577
REMARK  239  A    between atoms: _577  and  _578
REMARK  240  A    between atoms: _587  and  _589
REMARK  241  A    between atoms: _589  and  _590
REMARK  242  A    between atoms: _589  and  _592
REMARK  243  A    between atoms: _595  and  _597
REMARK  244  A    between atoms: _597  and  _598
REMARK  245  A    between atoms: _597  and  _600
REMARK  246  A    between atoms: _600  and  _601
REMARK  247  A    between atoms: _606  and  _607
REMARK  248  A    between atoms: _609  and  _611
REMARK  249  A    between atoms: _611  and  _612
REMARK  250  A    between atoms: _611  and  _614
REMARK  251  A    between atoms: _614  and  _615
REMARK  252  A    between atoms: _620  and  _622
REMARK  253  A    between atoms: _622  and  _623
REMARK  254  A    between atoms: _622  and  _625
REMARK  255  A    between atoms: _628  and  _630
REMARK  256  A    between atoms: _630  and  _631
REMARK  257  A    between atoms: _630  and  _633
REMARK  258  A    between atoms: _633  and  _634
REMARK  259  A    between atoms: _634  and  _635
REMARK  260  A    between atoms: _635  and  _636
REMARK  261  A    between atoms: _636  and  _637
REMARK  262  A    between atoms: _641  and  _643
REMARK  263  A    between atoms: _643  and  _644
REMARK  264  A    between atoms: _643  and  _646
REMARK  265  A    between atoms: _646  and  _647
REMARK  266  A    between atoms: _653  and  _655
REMARK  267  A    between atoms: _655  and  _656
REMARK  268  A    between atoms: _655  and  _658
REMARK  269  A    between atoms: _658  and  _659
REMARK  270  A    between atoms: _665  and  _666
REMARK  271  A    between atoms: _671  and  _673
REMARK  272  A    between atoms: _673  and  _674
REMARK  273  A    between atoms: _673  and  _676
REMARK  274  A    between atoms: _676  and  _677
REMARK  275  A    between atoms: _677  and  _678
REMARK  276  A    between atoms: _678  and  _679
REMARK  277  A    between atoms: _688  and  _690
REMARK  278  A    between atoms: _690  and  _691
REMARK  279  A    between atoms: _690  and  _693
REMARK  280  A    between atoms: _693  and  _694
REMARK  281  A    between atoms: _697  and  _699
REMARK  282  A    between atoms: _699  and  _700
REMARK  283  A    between atoms: _699  and  _702
REMARK  284  A    between atoms: _702  and  _703
REMARK  285  A    between atoms: _706  and  _708
REMARK  286  A    between atoms: _708  and  _709
REMARK  287  A    between atoms: _708  and  _711
REMARK  288  A    between atoms: _711  and  _712
REMARK  289  A    between atoms: _715  and  _717
REMARK  290  A    between atoms: _717  and  _718
REMARK  291  A    between atoms: _717  and  _720
REMARK  292  A    between atoms: _723  and  _725
REMARK  293  A    between atoms: _725  and  _726
REMARK  294  A    between atoms: _725  and  _728
REMARK  295  A    between atoms: _728  and  _729
REMARK  296  A    between atoms: _729  and  _730
REMARK  297  A    between atoms: _730  and  _731
REMARK  298  A    between atoms: _731  and  _732
REMARK  299  A    between atoms: _736  and  _738
REMARK  300  A    between atoms: _738  and  _739
REMARK  301  A    between atoms: _738  and  _741
REMARK  302  A    between atoms: _741  and  _742
REMARK  303  A    between atoms: _742  and  _743
REMARK  304  A    between atoms: _743  and  _744
REMARK  305  A    between atoms: _753  and  _755
REMARK  306  A    between atoms: _755  and  _756
REMARK  307  A    between atoms: _755  and  _758
REMARK  308  A    between atoms: _758  and  _759
REMARK  309  A    between atoms: _762  and  _764
REMARK  310  A    between atoms: _764  and  _765
REMARK  311  A    between atoms: _764  and  _767
REMARK  312  A    between atoms: _767  and  _768
REMARK  313  A    between atoms: _768  and  _769
REMARK  314  A    between atoms: _772  and  _774
REMARK  315  A    between atoms: _774  and  _775
REMARK  316  A    between atoms: _774  and  _777
REMARK  317  A    between atoms: _777  and  _778
REMARK  318  A    between atoms: _788  and  _790
REMARK  319  A    between atoms: _790  and  _791
REMARK  320  A    between atoms: _790  and  _793
REMARK  321  A    between atoms: _793  and  _794
REMARK  322  A    between atoms: _797  and  _799
REMARK  323  A    between atoms: _799  and  _800
REMARK  324  A    between atoms: _799  and  _802
REMARK  325  A    between atoms: _802  and  _803
REMARK  326  A    between atoms: _806  and  _808
REMARK  327  A    between atoms: _808  and  _809
REMARK  328  A    between atoms: _811  and  _813
REMARK  329  A    between atoms: _813  and  _814
REMARK  330  A    between atoms: _813  and  _816
REMARK  331  A    between atoms: _816  and  _817
REMARK  332  A    between atoms: _820  and  _822
REMARK  333  A    between atoms: _822  and  _823
REMARK  334  A    between atoms: _822  and  _825
REMARK  335  A    between atoms: _825  and  _826
REMARK  336  A    between atoms: _826  and  _827
REMARK  337  A    between atoms: _827  and  _828
REMARK  338  A    between atoms: _828  and  _829
REMARK  339  A    between atoms: _834  and  _835
REMARK  340  A    between atoms: _840  and  _842
REMARK  341  A    between atoms: _842  and  _843
REMARK  342  A    between atoms: _842  and  _845
REMARK  343  A    between atoms: _848  and  _850
REMARK  344  A    between atoms: _850  and  _851
REMARK  345  A    between atoms: _854  and  _856
REMARK  346  A    between atoms: _856  and  _857
REMARK  347  A    between atoms: _856  and  _859
REMARK  348  A    between atoms: _859  and  _860
REMARK  349  A    between atoms: _860  and  _861
REMARK  350  A    between atoms: _864  and  _866
REMARK  351  A    between atoms: _866  and  _867
REMARK  352  A    between atoms: _866  and  _869
REMARK  353  A    between atoms: _872  and  _874
REMARK  354  A    between atoms: _874  and  _875
REMARK  355  A    between atoms: _874  and  _877
REMARK  356  A    between atoms: _877  and  _878
REMARK  357  A    between atoms: _878  and  _879
REMARK  358  A    between atoms: _879  and  _880
REMARK                            x       y       z     vdW  Elec       q    Type
REMARK                         _______ _______ _______ _____ _____    ______ ____
ROOT
ATOM      1  O   HOH     1     -21.224  31.254 -48.122  0.00  0.00    +0.000 OA
ENDROOT
TORSDOF 0
REMARK  Name = ../refined-set-2016/4x8o/4x8o_pocket.pdb
REMARK  358 active torsions:
REMARK  status: ('A' for Active; 'I' for Inactive)
REMARK    1  A    between atoms: _1  and  _3
REMARK    2  A    between atoms: _3  and  _4
REMARK    3  A    between atoms: _3  and  _6
REMARK    4  A    between atoms: _6  and  _7
REMARK    5  A    between atoms: _10  and  _12
REMARK    6  A    between atoms: _12  and  _13
REMARK    7  A    between atoms: _12  and  _15
REMARK    8  A    between atoms: _15  and  _16
REMARK    9  A    between atoms: _19  and  _21
REMARK   10  A    between atoms: _21  and  _22
REMARK   11  A    between atoms: _24  and  _26
REMARK   12  A    between atoms: _26  and  _27
REMARK   13  A    between atoms: _31  and  _32
REMARK   14  A    between atoms: _37  and  _39
REMARK   15  A    between atoms: _39  and  _40
REMARK   16  A    between atoms: _42  and  _44
REMARK   17  A    between atoms: _44  and  _45
REMARK   18  A    between atoms: _48  and  _50
REMARK   19  A    between atoms: _50  and  _51
REMARK   20  A    between atoms: _53  and  _55
REMARK   21  A    between atoms: _55  and  _56
REMARK   22  A    between atoms: _55  and  _58
REMARK   23  A    between atoms: _58  and  _59
REMARK   24  A    between atoms: _59  and  _60
REMARK   25  A    between atoms: _60  and  _61
REMARK   26  A    between atoms: _61  and  _62
REMARK   27  A    between atoms: _66  and  _68
REMARK   28  A    between atoms: _68  and  _69
REMARK   29  A    between atoms: _71  and  _73
REMARK   30  A    between atoms: _73  and  _74
REMARK   31  A    between atoms: _73  and  _76
REMARK   32  A    between atoms: _76  and  _77
REMARK   33  A    between atoms: _80  and  _82
REMARK   34  A    between atoms: _82  and  _83
REMARK   35  A    between atoms: _82  and  _85
REMARK   36  A    between atoms: _85  and  _86
REMARK   37  A    between atoms: _86  and  _87
REMARK   38  A    between atoms: _92  and  _94
REMARK   39  A    between atoms: _94  and  _95
REMARK   40  A    between atoms: _98  and  _100
REMARK   41  A    between atoms: _100  and  _101
REMARK   42  A    between atoms: _100  and  _103
REMARK   43  A    between atoms: _103  and  _104
REMARK   44  A    between atoms: _104  and  _105
REMARK   45  A    between atoms: _110  and  _112
REMARK   46  A    between atoms: _112  and  _113
REMARK   47  A    between atoms: _112  and  _115
REMARK   48  A    between atoms: _115  and  _116
REMARK   49  A    between atoms: _122  and  _124
REMARK   50  A    between atoms: _124  and  _125
REMARK   51  A    between atoms: _124  and  _127
REMARK   52  A    between atoms: _127  and  _128
REMARK   53  A    between atoms: _128  and  _129
REMARK   54  A    between atoms: _134  and  _136
REMARK   55  A    between atoms: _136  and  _137
REMARK   56  A    between atoms: _136  and  _139
REMARK   57  A    between atoms: _139  and  _140
REMARK   58  A    between atoms: _142  and  _144
REMARK   59  A    between atoms: _144  and  _145
REMARK   60  A    between atoms: _144  and  _147
REMARK   61  A    between atoms: _147  and  _148
REMARK   62  A    between atoms: _151  and  _153
REMARK   63  A    between atoms: _153  and  _154
REMARK   64  A    between atoms: _156  and  _158
REMARK   65  A    between atoms: _158  and  _159
REMARK   66  A    between atoms: _158  and  _161
REMARK   67  A    between atoms: _161  and  _162
REMARK   68  A    between atoms: _165  and  _167
REMARK   69  A    between atoms: _167  and  _168
REMARK   70  A    between atoms: _167  and  _170
REMARK   71  A    between atoms: _170  and  _171
REMARK   72  A    between atoms: _171  and  _172
REMARK   73  A    between atoms: _174  and  _176
REMARK   74  A    between atoms: _176  and  _177
REMARK   75  A    between atoms: _176  and  _179
REMARK   76  A    between atoms: _179  and  _180
REMARK   77  A    between atoms: _183  and  _185
REMARK   78  A    between atoms: _185  and  _186
REMARK   79  A    between atoms: _185  and  _188
REMARK   80  A    between atoms: _188  and  _189
REMARK   81  A    between atoms: _189  and  _190
REMARK   82  A    between atoms: _190  and  _191
REMARK   83  A    between atoms: _200  and  _202
REMARK   84  A    between atoms: _202  and  _203
REMARK   85  A    between atoms: _206  and  _208
REMARK   86  A    between atoms: _208  and  _209
REMARK   87  A    between atoms: _208  and  _211
REMARK   88  A    between atoms: _211  and  _212
REMARK   89  A    between atoms: _212  and  _213
REMARK   90  A    between atoms: _213  and  _214
REMARK   91  A    between atoms: _214  and  _215
REMARK   92  A    between atoms: _219  and  _221
REMARK   93  A    between atoms: _221  and  _222
REMARK   94  A    between atoms: _221  and  _224
REMARK   95  A    between atoms: _224  and  _225
REMARK   96  A    between atoms: _228  and  _230
REMARK   97  A    between atoms: _230  and  _231
REMARK   98  A    between atoms: _230  and  _233
REMARK   99  A    between atoms: _233  and  _234
REMARK  100  A    between atoms: _237  and  _239
REMARK  101  A    between atoms: _239  and  _240
REMARK  102  A    between atoms: _239  and  _242
REMARK  103  A    between atoms: _242  and  _243
REMARK  104  A    between atoms: _243  and  _244
REMARK  105  A    between atoms: _246  and  _248
REMARK  106  A    between atoms: _248  and  _249
REMARK  107  A    between atoms: _248  and  _251
REMARK  108  A    between atoms: _251  and  _252
REMARK  109  A    between atoms: _255  and  _257
REMARK  110  A    between atoms: _257  and  _258
REMARK  111  A    between atoms: _261  and  _263
REMARK  112  A    between atoms: _263  and  _264
REMARK  113  A    between atoms: _266  and  _268
REMARK  114  A    between atoms: _268  and  _269
REMARK  115  A    between atoms: _268  and  _271
REMARK  116  A    between atoms: _271  and  _272
REMARK  117  A    between atoms: _272  and  _273
REMARK  118  A    between atoms: _273  and  _274
REMARK  119  A    between atoms: _274  and  _275
REMARK  120  A    between atoms: _279  and  _281
REMARK  121  A    between atoms: _281  and  _282
REMARK  122  A    between atoms: _281  and  _284
REMARK  123  A    between atoms: _284  and  _285
REMARK  124  A    between atoms: _288  and  _290
REMARK  125  A    between atoms: _290  and  _291
REMARK  126  A    between atoms: _290  and  _293
REMARK  127  A    between atoms: _296  and  _298
REMARK  128  A    between atoms: _298  and  _299
REMARK  129  A    between atoms: _298  and  _301
REMARK  130  A    between atoms: _301  and  _302
REMARK  131  A    between atoms: _305  and  _307
REMARK  132  A    between atoms: _307  and  _308
REMARK  133  A    between atoms: _307  and  _310
REMARK  134  A    between atoms: _310  and  _311
REMARK  135  A    between atoms: _314  and  _316
REMARK  136  A    between atoms: _316  and  _317
REMARK  137  A    between atoms: _316  and  _319
REMARK  138  A    between atoms: _319  and  _320
REMARK  139  A    between atoms: _320  and  _321
REMARK  140  A    between atoms: _324  and  _326
REMARK  141  A    between atoms: _326  and  _327
REMARK  142  A    between atoms: _326  and  _329
REMARK  143  A    between atoms: _329  and  _330
REMARK  144  A    between atoms: _333  and  _335
REMARK  145  A    between atoms: _335  and  _336
REMARK  146  A    between atoms: _335  and  _338
REMARK  147  A    between atoms: _341  and  _343
REMARK  148  A    between atoms: _343  and  _344
REMARK  149  A    between atoms: _343  and  _346
REMARK  150  A    between atoms: _346  and  _347
REMARK  151  A    between atoms: _350  and  _352
REMARK  152  A    between atoms: _352  and  _353
REMARK  153  A    between atoms: _352  and  _355
REMARK  154  A    between atoms: _358  and  _360
REMARK  155  A    between atoms: _360  and  _361
REMARK  156  A    between atoms: _360  and  _363
REMARK  157  A    between atoms: _363  and  _364
REMARK  158  A    between atoms: _367  and  _369
REMARK  159  A    between atoms: _369  and  _370
REMARK  160  A    between atoms: _372  and  _374
REMARK  161  A    between atoms: _374  and  _375
REMARK  162  A    between atoms: _374  and  _377
REMARK  163  A    between atoms: _377  and  _378
REMARK  164  A    between atoms: _385  and  _386
REMARK  165  A    between atoms: _391  and  _393
REMARK  166  A    between atoms: _393  and  _394
REMARK  167  A    between atoms: _393  and  _396
REMARK  168  A    between atoms: _396  and  _397
REMARK  169  A    between atoms: _397  and  _398
REMARK  170  A    between atoms: _398  and  _399
REMARK  171  A    between atoms: _408  and  _410
REMARK  172  A    between atoms: _410  and  _411
REMARK  173  A    between atoms: _410  and  _413
REMARK  174  A    between atoms: _413  and  _414
REMARK  175  A    between atoms: _417  and  _419
REMARK  176  A    between atoms: _419  and  _420
REMARK  177  A    between atoms: _419  and  _422
REMARK  178  A    between atoms: _422  and  _423
REMARK  179  A    between atoms: _423  and  _424
REMARK  180  A    between atoms: _429  and  _431
REMARK  181  A    between atoms: _431  and  _432
REMARK  182  A    between atoms: _431  and  _434
REMARK  183  A    between atoms: _434  and  _435
REMARK  184  A    between atoms: _441  and  _443
REMARK  185  A    between atoms: _443  and  _444
REMARK  186  A    between atoms: _443  and  _446
REMARK  187  A    between atoms: _449  and  _451
REMARK  188  A    between atoms: _451  and  _452
REMARK  189  A    between atoms: _451  and  _454
REMARK  190  A    between atoms: _454  and  _455
REMARK  191  A    between atoms: _458  and  _460
REMARK  192  A    between atoms: _460  and  _461
REMARK  193  A    between atoms: _460  and  _463
REMARK  194  A    between atoms: _463  and  _464
REMARK  195  A    between atoms: _467  and  _469
REMARK  196  A    between atoms: _469  and  _470
REMARK  197  A    between atoms: _469  and  _472
REMARK  198  A    between atoms: _475  and  _477
REMARK  199  A    between atoms: _477  and  _478
REMARK  200  A    between atoms: _477  and  _480
REMARK  201  A    between atoms: _480  and  _481
REMARK  202  A    between atoms: _484  and  _486
REMARK  203  A    between atoms: _486  and  _487
REMARK  204  A    between atoms: _486  and  _489
REMARK  205  A    between atoms: _489  and  _490
REMARK  206  A    between atoms: _490  and  _491
REMARK  207  A    between atoms: _491  and  _492
REMARK  208  A    between atoms: _501  and  _503
REMARK  209  A    between atoms: _503  and  _504
REMARK  210  A    between atoms: _503  and  _506
REMARK  211  A    between atoms: _506  and  _507
REMARK  212  A    between atoms: _510  and  _512
REMARK  213  A    between atoms: _512  and  _513
REMARK  214  A    between atoms: _512  and  _515
REMARK  215  A    between atoms: _518  and  _520
REMARK  216  A    between atoms: _520  and  _521
REMARK  217  A    between atoms: _523  and  _525
REMARK  218  A    between atoms: _525  and  _526
REMARK  219  A    between atoms: _525  and  _528
REMARK  220  A    between atoms: _528  and  _529
REMARK  221  A    between atoms: _529  and  _530
REMARK  222  A    between atoms: _530  and  _531
REMARK  223  A    between atoms: _540  and  _542
REMARK  224  A    between atoms: _542  and  _543
REMARK  225  A    between atoms: _542  and  _545
REMARK  226  A    between atoms: _545  and  _546
REMARK  227  A    between atoms: _546  and  _547
REMARK  228  A    between atoms: _547  and  _548
REMARK  229  A    between atoms: _557  and  _559
REMARK  230  A    between atoms: _559  and  _560
REMARK  231  A    between atoms: _559  and  _562
REMARK  232  A    between atoms: _565  and  _567
REMARK  233  A    between atoms: _567  and  _568
REMARK  234  A    between atoms: _570  and  _572
REMARK  235  A    between atoms: _572  and  _573
REMARK  236  A    between atoms: _572  and  _575
REMARK  237  A    between atoms: _575  and  _576
REMARK  238  A    between atoms: _576  and  _577
REMARK  239  A    between atoms: _577  and  _578
REMARK  240  A    between atoms: _587  and  _589
REMARK  241  A    between atoms: _589  and  _590
REMARK  242  A    between atoms: _589  and  _592
REMARK  243  A    between atoms: _595  and  _597
REMARK  244  A    between atoms: _597  and  _598
REMARK  245  A    between atoms: _597  and  _600
REMARK  246  A    between atoms: _600  and  _601
REMARK  247  A    between atoms: _606  and  _607
REMARK  248  A    between atoms: _609  and  _611
REMARK  249  A    between atoms: _611  and  _612
REMARK  250  A    between atoms: _611  and  _614
REMARK  251  A    between atoms: _614  and  _615
REMARK  252  A    between atoms: _620  and  _622
REMARK  253  A    between atoms: _622  and  _623
REMARK  254  A    between atoms: _622  and  _625
REMARK  255  A    between atoms: _628  and  _630
REMARK  256  A    between atoms: _630  and  _631
REMARK  257  A    between atoms: _630  and  _633
REMARK  258  A    between atoms: _633  and  _634
REMARK  259  A    between atoms: _634  and  _635
REMARK  260  A    between atoms: _635  and  _636
REMARK  261  A    between atoms: _636  and  _637
REMARK  262  A    between atoms: _641  and  _643
REMARK  263  A    between atoms: _643  and  _644
REMARK  264  A    between atoms: _643  and  _646
REMARK  265  A    between atoms: _646  and  _647
REMARK  266  A    between atoms: _653  and  _655
REMARK  267  A    between atoms: _655  and  _656
REMARK  268  A    between atoms: _655  and  _658
REMARK  269  A    between atoms: _658  and  _659
REMARK  270  A    between atoms: _665  and  _666
REMARK  271  A    between atoms: _671  and  _673
REMARK  272  A    between atoms: _673  and  _674
REMARK  273  A    between atoms: _673  and  _676
REMARK  274  A    between atoms: _676  and  _677
REMARK  275  A    between atoms: _677  and  _678
REMARK  276  A    between atoms: _678  and  _679
REMARK  277  A    between atoms: _688  and  _690
REMARK  278  A    between atoms: _690  and  _691
REMARK  279  A    between atoms: _690  and  _693
REMARK  280  A    between atoms: _693  and  _694
REMARK  281  A    between atoms: _697  and  _699
REMARK  282  A    between atoms: _699  and  _700
REMARK  283  A    between atoms: _699  and  _702
REMARK  284  A    between atoms: _702  and  _703
REMARK  285  A    between atoms: _706  and  _708
REMARK  286  A    between atoms: _708  and  _709
REMARK  287  A    between atoms: _708  and  _711
REMARK  288  A    between atoms: _711  and  _712
REMARK  289  A    between atoms: _715  and  _717
REMARK  290  A    between atoms: _717  and  _718
REMARK  291  A    between atoms: _717  and  _720
REMARK  292  A    between atoms: _723  and  _725
REMARK  293  A    between atoms: _725  and  _726
REMARK  294  A    between atoms: _725  and  _728
REMARK  295  A    between atoms: _728  and  _729
REMARK  296  A    between atoms: _729  and  _730
REMARK  297  A    between atoms: _730  and  _731
REMARK  298  A    between atoms: _731  and  _732
REMARK  299  A    between atoms: _736  and  _738
REMARK  300  A    between atoms: _738  and  _739
REMARK  301  A    between atoms: _738  and  _741
REMARK  302  A    between atoms: _741  and  _742
REMARK  303  A    between atoms: _742  and  _743
REMARK  304  A    between atoms: _743  and  _744
REMARK  305  A    between atoms: _753  and  _755
REMARK  306  A    between atoms: _755  and  _756
REMARK  307  A    between atoms: _755  and  _758
REMARK  308  A    between atoms: _758  and  _759
REMARK  309  A    between atoms: _762  and  _764
REMARK  310  A    between atoms: _764  and  _765
REMARK  311  A    between atoms: _764  and  _767
REMARK  312  A    between atoms: _767  and  _768
REMARK  313  A    between atoms: _768  and  _769
REMARK  314  A    between atoms: _772  and  _774
REMARK  315  A    between atoms: _774  and  _775
REMARK  316  A    between atoms: _774  and  _777
REMARK  317  A    between atoms: _777  and  _778
REMARK  318  A    between atoms: _788  and  _790
REMARK  319  A    between atoms: _790  and  _791
REMARK  320  A    between atoms: _790  and  _793
REMARK  321  A    between atoms: _793  and  _794
REMARK  322  A    between atoms: _797  and  _799
REMARK  323  A    between atoms: _799  and  _800
REMARK  324  A    between atoms: _799  and  _802
REMARK  325  A    between atoms: _802  and  _803
REMARK  326  A    between atoms: _806  and  _808
REMARK  327  A    between atoms: _808  and  _809
REMARK  328  A    between atoms: _811  and  _813
REMARK  329  A    between atoms: _813  and  _814
REMARK  330  A    between atoms: _813  and  _816
REMARK  331  A    between atoms: _816  and  _817
REMARK  332  A    between atoms: _820  and  _822
REMARK  333  A    between atoms: _822  and  _823
REMARK  334  A    between atoms: _822  and  _825
REMARK  335  A    between atoms: _825  and  _826
REMARK  336  A    between atoms: _826  and  _827
REMARK  337  A    between atoms: _827  and  _828
REMARK  338  A    between atoms: _828  and  _829
REMARK  339  A    between atoms: _834  and  _835
REMARK  340  A    between atoms: _840  and  _842
REMARK  341  A    between atoms: _842  and  _843
REMARK  342  A    between atoms: _842  and  _845
REMARK  343  A    between atoms: _848  and  _850
REMARK  344  A    between atoms: _850  and  _851
REMARK  345  A    between atoms: _854  and  _856
REMARK  346  A    between atoms: _856  and  _857
REMARK  347  A    between atoms: _856  and  _859
REMARK  348  A    between atoms: _859  and  _860
REMARK  349  A    between atoms: _860  and  _861
REMARK  350  A    between atoms: _864  and  _866
REMARK  351  A    between atoms: _866  and  _867
REMARK  352  A    between atoms: _866  and  _869
REMARK  353  A    between atoms: _872  and  _874
REMARK  354  A    between atoms: _874  and  _875
REMARK  355  A    between atoms: _874  and  _877
REMARK  356  A    between atoms: _877  and  _878
REMARK  357  A    between atoms: _878  and  _879
REMARK  358  A    between atoms: _879  and  _880
REMARK                            x       y       z     vdW  Elec       q    Type
REMARK                         _______ _______ _______ _____ _____    ______ ____
ROOT
ATOM      1  O   HOH     1     -25.211  29.807 -45.980  0.00  0.00    +0.000 OA
ENDROOT
TORSDOF 0
REMARK  Name = ../refined-set-2016/4x8o/4x8o_pocket.pdb
REMARK  358 active torsions:
REMARK  status: ('A' for Active; 'I' for Inactive)
REMARK    1  A    between atoms: _1  and  _3
REMARK    2  A    between atoms: _3  and  _4
REMARK    3  A    between atoms: _3  and  _6
REMARK    4  A    between atoms: _6  and  _7
REMARK    5  A    between atoms: _10  and  _12
REMARK    6  A    between atoms: _12  and  _13
REMARK    7  A    between atoms: _12  and  _15
REMARK    8  A    between atoms: _15  and  _16
REMARK    9  A    between atoms: _19  and  _21
REMARK   10  A    between atoms: _21  and  _22
REMARK   11  A    between atoms: _24  and  _26
REMARK   12  A    between atoms: _26  and  _27
REMARK   13  A    between atoms: _31  and  _32
REMARK   14  A    between atoms: _37  and  _39
REMARK   15  A    between atoms: _39  and  _40
REMARK   16  A    between atoms: _42  and  _44
REMARK   17  A    between atoms: _44  and  _45
REMARK   18  A    between atoms: _48  and  _50
REMARK   19  A    between atoms: _50  and  _51
REMARK   20  A    between atoms: _53  and  _55
REMARK   21  A    between atoms: _55  and  _56
REMARK   22  A    between atoms: _55  and  _58
REMARK   23  A    between atoms: _58  and  _59
REMARK   24  A    between atoms: _59  and  _60
REMARK   25  A    between atoms: _60  and  _61
REMARK   26  A    between atoms: _61  and  _62
REMARK   27  A    between atoms: _66  and  _68
REMARK   28  A    between atoms: _68  and  _69
REMARK   29  A    between atoms: _71  and  _73
REMARK   30  A    between atoms: _73  and  _74
REMARK   31  A    between atoms: _73  and  _76
REMARK   32  A    between atoms: _76  and  _77
REMARK   33  A    between atoms: _80  and  _82
REMARK   34  A    between atoms: _82  and  _83
REMARK   35  A    between atoms: _82  and  _85
REMARK   36  A    between atoms: _85  and  _86
REMARK   37  A    between atoms: _86  and  _87
REMARK   38  A    between atoms: _92  and  _94
REMARK   39  A    between atoms: _94  and  _95
REMARK   40  A    between atoms: _98  and  _100
REMARK   41  A    between atoms: _100  and  _101
REMARK   42  A    between atoms: _100  and  _103
REMARK   43  A    between atoms: _103  and  _104
REMARK   44  A    between atoms: _104  and  _105
REMARK   45  A    between atoms: _110  and  _112
REMARK   46  A    between atoms: _112  and  _113
REMARK   47  A    between atoms: _112  and  _115
REMARK   48  A    between atoms: _115  and  _116
REMARK   49  A    between atoms: _122  and  _124
REMARK   50  A    between atoms: _124  and  _125
REMARK   51  A    between atoms: _124  and  _127
REMARK   52  A    between atoms: _127  and  _128
REMARK   53  A    between atoms: _128  and  _129
REMARK   54  A    between atoms: _134  and  _136
REMARK   55  A    between atoms: _136  and  _137
REMARK   56  A    between atoms: _136  and  _139
REMARK   57  A    between atoms: _139  and  _140
REMARK   58  A    between atoms: _142  and  _144
REMARK   59  A    between atoms: _144  and  _145
REMARK   60  A    between atoms: _144  and  _147
REMARK   61  A    between atoms: _147  and  _148
REMARK   62  A    between atoms: _151  and  _153
REMARK   63  A    between atoms: _153  and  _154
REMARK   64  A    between atoms: _156  and  _158
REMARK   65  A    between atoms: _158  and  _159
REMARK   66  A    between atoms: _158  and  _161
REMARK   67  A    between atoms: _161  and  _162
REMARK   68  A    between atoms: _165  and  _167
REMARK   69  A    between atoms: _167  and  _168
REMARK   70  A    between atoms: _167  and  _170
REMARK   71  A    between atoms: _170  and  _171
REMARK   72  A    between atoms: _171  and  _172
REMARK   73  A    between atoms: _174  and  _176
REMARK   74  A    between atoms: _176  and  _177
REMARK   75  A    between atoms: _176  and  _179
REMARK   76  A    between atoms: _179  and  _180
REMARK   77  A    between atoms: _183  and  _185
REMARK   78  A    between atoms: _185  and  _186
REMARK   79  A    between atoms: _185  and  _188
REMARK   80  A    between atoms: _188  and  _189
REMARK   81  A    between atoms: _189  and  _190
REMARK   82  A    between atoms: _190  and  _191
REMARK   83  A    between atoms: _200  and  _202
REMARK   84  A    between atoms: _202  and  _203
REMARK   85  A    between atoms: _206  and  _208
REMARK   86  A    between atoms: _208  and  _209
REMARK   87  A    between atoms: _208  and  _211
REMARK   88  A    between atoms: _211  and  _212
REMARK   89  A    between atoms: _212  and  _213
REMARK   90  A    between atoms: _213  and  _214
REMARK   91  A    between atoms: _214  and  _215
REMARK   92  A    between atoms: _219  and  _221
REMARK   93  A    between atoms: _221  and  _222
REMARK   94  A    between atoms: _221  and  _224
REMARK   95  A    between atoms: _224  and  _225
REMARK   96  A    between atoms: _228  and  _230
REMARK   97  A    between atoms: _230  and  _231
REMARK   98  A    between atoms: _230  and  _233
REMARK   99  A    between atoms: _233  and  _234
REMARK  100  A    between atoms: _237  and  _239
REMARK  101  A    between atoms: _239  and  _240
REMARK  102  A    between atoms: _239  and  _242
REMARK  103  A    between atoms: _242  and  _243
REMARK  104  A    between atoms: _243  and  _244
REMARK  105  A    between atoms: _246  and  _248
REMARK  106  A    between atoms: _248  and  _249
REMARK  107  A    between atoms: _248  and  _251
REMARK  108  A    between atoms: _251  and  _252
REMARK  109  A    between atoms: _255  and  _257
REMARK  110  A    between atoms: _257  and  _258
REMARK  111  A    between atoms: _261  and  _263
REMARK  112  A    between atoms: _263  and  _264
REMARK  113  A    between atoms: _266  and  _268
REMARK  114  A    between atoms: _268  and  _269
REMARK  115  A    between atoms: _268  and  _271
REMARK  116  A    between atoms: _271  and  _272
REMARK  117  A    between atoms: _272  and  _273
REMARK  118  A    between atoms: _273  and  _274
REMARK  119  A    between atoms: _274  and  _275
REMARK  120  A    between atoms: _279  and  _281
REMARK  121  A    between atoms: _281  and  _282
REMARK  122  A    between atoms: _281  and  _284
REMARK  123  A    between atoms: _284  and  _285
REMARK  124  A    between atoms: _288  and  _290
REMARK  125  A    between atoms: _290  and  _291
REMARK  126  A    between atoms: _290  and  _293
REMARK  127  A    between atoms: _296  and  _298
REMARK  128  A    between atoms: _298  and  _299
REMARK  129  A    between atoms: _298  and  _301
REMARK  130  A    between atoms: _301  and  _302
REMARK  131  A    between atoms: _305  and  _307
REMARK  132  A    between atoms: _307  and  _308
REMARK  133  A    between atoms: _307  and  _310
REMARK  134  A    between atoms: _310  and  _311
REMARK  135  A    between atoms: _314  and  _316
REMARK  136  A    between atoms: _316  and  _317
REMARK  137  A    between atoms: _316  and  _319
REMARK  138  A    between atoms: _319  and  _320
REMARK  139  A    between atoms: _320  and  _321
REMARK  140  A    between atoms: _324  and  _326
REMARK  141  A    between atoms: _326  and  _327
REMARK  142  A    between atoms: _326  and  _329
REMARK  143  A    between atoms: _329  and  _330
REMARK  144  A    between atoms: _333  and  _335
REMARK  145  A    between atoms: _335  and  _336
REMARK  146  A    between atoms: _335  and  _338
REMARK  147  A    between atoms: _341  and  _343
REMARK  148  A    between atoms: _343  and  _344
REMARK  149  A    between atoms: _343  and  _346
REMARK  150  A    between atoms: _346  and  _347
REMARK  151  A    between atoms: _350  and  _352
REMARK  152  A    between atoms: _352  and  _353
REMARK  153  A    between atoms: _352  and  _355
REMARK  154  A    between atoms: _358  and  _360
REMARK  155  A    between atoms: _360  and  _361
REMARK  156  A    between atoms: _360  and  _363
REMARK  157  A    between atoms: _363  and  _364
REMARK  158  A    between atoms: _367  and  _369
REMARK  159  A    between atoms: _369  and  _370
REMARK  160  A    between atoms: _372  and  _374
REMARK  161  A    between atoms: _374  and  _375
REMARK  162  A    between atoms: _374  and  _377
REMARK  163  A    between atoms: _377  and  _378
REMARK  164  A    between atoms: _385  and  _386
REMARK  165  A    between atoms: _391  and  _393
REMARK  166  A    between atoms: _393  and  _394
REMARK  167  A    between atoms: _393  and  _396
REMARK  168  A    between atoms: _396  and  _397
REMARK  169  A    between atoms: _397  and  _398
REMARK  170  A    between atoms: _398  and  _399
REMARK  171  A    between atoms: _408  and  _410
REMARK  172  A    between atoms: _410  and  _411
REMARK  173  A    between atoms: _410  and  _413
REMARK  174  A    between atoms: _413  and  _414
REMARK  175  A    between atoms: _417  and  _419
REMARK  176  A    between atoms: _419  and  _420
REMARK  177  A    between atoms: _419  and  _422
REMARK  178  A    between atoms: _422  and  _423
REMARK  179  A    between atoms: _423  and  _424
REMARK  180  A    between atoms: _429  and  _431
REMARK  181  A    between atoms: _431  and  _432
REMARK  182  A    between atoms: _431  and  _434
REMARK  183  A    between atoms: _434  and  _435
REMARK  184  A    between atoms: _441  and  _443
REMARK  185  A    between atoms: _443  and  _444
REMARK  186  A    between atoms: _443  and  _446
REMARK  187  A    between atoms: _449  and  _451
REMARK  188  A    between atoms: _451  and  _452
REMARK  189  A    between atoms: _451  and  _454
REMARK  190  A    between atoms: _454  and  _455
REMARK  191  A    between atoms: _458  and  _460
REMARK  192  A    between atoms: _460  and  _461
REMARK  193  A    between atoms: _460  and  _463
REMARK  194  A    between atoms: _463  and  _464
REMARK  195  A    between atoms: _467  and  _469
REMARK  196  A    between atoms: _469  and  _470
REMARK  197  A    between atoms: _469  and  _472
REMARK  198  A    between atoms: _475  and  _477
REMARK  199  A    between atoms: _477  and  _478
REMARK  200  A    between atoms: _477  and  _480
REMARK  201  A    between atoms: _480  and  _481
REMARK  202  A    between atoms: _484  and  _486
REMARK  203  A    between atoms: _486  and  _487
REMARK  204  A    between atoms: _486  and  _489
REMARK  205  A    between atoms: _489  and  _490
REMARK  206  A    between atoms: _490  and  _491
REMARK  207  A    between atoms: _491  and  _492
REMARK  208  A    between atoms: _501  and  _503
REMARK  209  A    between atoms: _503  and  _504
REMARK  210  A    between atoms: _503  and  _506
REMARK  211  A    between atoms: _506  and  _507
REMARK  212  A    between atoms: _510  and  _512
REMARK  213  A    between atoms: _512  and  _513
REMARK  214  A    between atoms: _512  and  _515
REMARK  215  A    between atoms: _518  and  _520
REMARK  216  A    between atoms: _520  and  _521
REMARK  217  A    between atoms: _523  and  _525
REMARK  218  A    between atoms: _525  and  _526
REMARK  219  A    between atoms: _525  and  _528
REMARK  220  A    between atoms: _528  and  _529
REMARK  221  A    between atoms: _529  and  _530
REMARK  222  A    between atoms: _530  and  _531
REMARK  223  A    between atoms: _540  and  _542
REMARK  224  A    between atoms: _542  and  _543
REMARK  225  A    between atoms: _542  and  _545
REMARK  226  A    between atoms: _545  and  _546
REMARK  227  A    between atoms: _546  and  _547
REMARK  228  A    between atoms: _547  and  _548
REMARK  229  A    between atoms: _557  and  _559
REMARK  230  A    between atoms: _559  and  _560
REMARK  231  A    between atoms: _559  and  _562
REMARK  232  A    between atoms: _565  and  _567
REMARK  233  A    between atoms: _567  and  _568
REMARK  234  A    between atoms: _570  and  _572
REMARK  235  A    between atoms: _572  and  _573
REMARK  236  A    between atoms: _572  and  _575
REMARK  237  A    between atoms: _575  and  _576
REMARK  238  A    between atoms: _576  and  _577
REMARK  239  A    between atoms: _577  and  _578
REMARK  240  A    between atoms: _587  and  _589
REMARK  241  A    between atoms: _589  and  _590
REMARK  242  A    between atoms: _589  and  _592
REMARK  243  A    between atoms: _595  and  _597
REMARK  244  A    between atoms: _597  and  _598
REMARK  245  A    between atoms: _597  and  _600
REMARK  246  A    between atoms: _600  and  _601
REMARK  247  A    between atoms: _606  and  _607
REMARK  248  A    between atoms: _609  and  _611
REMARK  249  A    between atoms: _611  and  _612
REMARK  250  A    between atoms: _611  and  _614
REMARK  251  A    between atoms: _614  and  _615
REMARK  252  A    between atoms: _620  and  _622
REMARK  253  A    between atoms: _622  and  _623
REMARK  254  A    between atoms: _622  and  _625
REMARK  255  A    between atoms: _628  and  _630
REMARK  256  A    between atoms: _630  and  _631
REMARK  257  A    between atoms: _630  and  _633
REMARK  258  A    between atoms: _633  and  _634
REMARK  259  A    between atoms: _634  and  _635
REMARK  260  A    between atoms: _635  and  _636
REMARK  261  A    between atoms: _636  and  _637
REMARK  262  A    between atoms: _641  and  _643
REMARK  263  A    between atoms: _643  and  _644
REMARK  264  A    between atoms: _643  and  _646
REMARK  265  A    between atoms: _646  and  _647
REMARK  266  A    between atoms: _653  and  _655
REMARK  267  A    between atoms: _655  and  _656
REMARK  268  A    between atoms: _655  and  _658
REMARK  269  A    between atoms: _658  and  _659
REMARK  270  A    between atoms: _665  and  _666
REMARK  271  A    between atoms: _671  and  _673
REMARK  272  A    between atoms: _673  and  _674
REMARK  273  A    between atoms: _673  and  _676
REMARK  274  A    between atoms: _676  and  _677
REMARK  275  A    between atoms: _677  and  _678
REMARK  276  A    between atoms: _678  and  _679
REMARK  277  A    between atoms: _688  and  _690
REMARK  278  A    between atoms: _690  and  _691
REMARK  279  A    between atoms: _690  and  _693
REMARK  280  A    between atoms: _693  and  _694
REMARK  281  A    between atoms: _697  and  _699
REMARK  282  A    between atoms: _699  and  _700
REMARK  283  A    between atoms: _699  and  _702
REMARK  284  A    between atoms: _702  and  _703
REMARK  285  A    between atoms: _706  and  _708
REMARK  286  A    between atoms: _708  and  _709
REMARK  287  A    between atoms: _708  and  _711
REMARK  288  A    between atoms: _711  and  _712
REMARK  289  A    between atoms: _715  and  _717
REMARK  290  A    between atoms: _717  and  _718
REMARK  291  A    between atoms: _717  and  _720
REMARK  292  A    between atoms: _723  and  _725
REMARK  293  A    between atoms: _725  and  _726
REMARK  294  A    between atoms: _725  and  _728
REMARK  295  A    between atoms: _728  and  _729
REMARK  296  A    between atoms: _729  and  _730
REMARK  297  A    between atoms: _730  and  _731
REMARK  298  A    between atoms: _731  and  _732
REMARK  299  A    between atoms: _736  and  _738
REMARK  300  A    between atoms: _738  and  _739
REMARK  301  A    between atoms: _738  and  _741
REMARK  302  A    between atoms: _741  and  _742
REMARK  303  A    between atoms: _742  and  _743
REMARK  304  A    between atoms: _743  and  _744
REMARK  305  A    between atoms: _753  and  _755
REMARK  306  A    between atoms: _755  and  _756
REMARK  307  A    between atoms: _755  and  _758
REMARK  308  A    between atoms: _758  and  _759
REMARK  309  A    between atoms: _762  and  _764
REMARK  310  A    between atoms: _764  and  _765
REMARK  311  A    between atoms: _764  and  _767
REMARK  312  A    between atoms: _767  and  _768
REMARK  313  A    between atoms: _768  and  _769
REMARK  314  A    between atoms: _772  and  _774
REMARK  315  A    between atoms: _774  and  _775
REMARK  316  A    between atoms: _774  and  _777
REMARK  317  A    between atoms: _777  and  _778
REMARK  318  A    between atoms: _788  and  _790
REMARK  319  A    between atoms: _790  and  _791
REMARK  320  A    between atoms: _790  and  _793
REMARK  321  A    between atoms: _793  and  _794
REMARK  322  A    between atoms: _797  and  _799
REMARK  323  A    between atoms: _799  and  _800
REMARK  324  A    between atoms: _799  and  _802
REMARK  325  A    between atoms: _802  and  _803
REMARK  326  A    between atoms: _806  and  _808
REMARK  327  A    between atoms: _808  and  _809
REMARK  328  A    between atoms: _811  and  _813
REMARK  329  A    between atoms: _813  and  _814
REMARK  330  A    between atoms: _813  and  _816
REMARK  331  A    between atoms: _816  and  _817
REMARK  332  A    between atoms: _820  and  _822
REMARK  333  A    between atoms: _822  and  _823
REMARK  334  A    between atoms: _822  and  _825
REMARK  335  A    between atoms: _825  and  _826
REMARK  336  A    between atoms: _826  and  _827
REMARK  337  A    between atoms: _827  and  _828
REMARK  338  A    between atoms: _828  and  _829
REMARK  339  A    between atoms: _834  and  _835
REMARK  340  A    between atoms: _840  and  _842
REMARK  341  A    between atoms: _842  and  _843
REMARK  342  A    between atoms: _842  and  _845
REMARK  343  A    between atoms: _848  and  _850
REMARK  344  A    between atoms: _850  and  _851
REMARK  345  A    between atoms: _854  and  _856
REMARK  346  A    between atoms: _856  and  _857
REMARK  347  A    between atoms: _856  and  _859
REMARK  348  A    between atoms: _859  and  _860
REMARK  349  A    between atoms: _860  and  _861
REMARK  350  A    between atoms: _864  and  _866
REMARK  351  A    between atoms: _866  and  _867
REMARK  352  A    between atoms: _866  and  _869
REMARK  353  A    between atoms: _872  and  _874
REMARK  354  A    between atoms: _874  and  _875
REMARK  355  A    between atoms: _874  and  _877
REMARK  356  A    between atoms: _877  and  _878
REMARK  357  A    between atoms: _878  and  _879
REMARK  358  A    between atoms: _879  and  _880
REMARK                            x       y       z     vdW  Elec       q    Type
REMARK                         _______ _______ _______ _____ _____    ______ ____
ROOT
ATOM      1  O   HOH     1      -9.044   5.727 -38.829  0.00  0.00    +0.000 OA
ENDROOT
TORSDOF 0
REMARK  Name = ../refined-set-2016/4x8o/4x8o_pocket.pdb
REMARK  358 active torsions:
REMARK  status: ('A' for Active; 'I' for Inactive)
REMARK    1  A    between atoms: _1  and  _3
REMARK    2  A    between atoms: _3  and  _4
REMARK    3  A    between atoms: _3  and  _6
REMARK    4  A    between atoms: _6  and  _7
REMARK    5  A    between atoms: _10  and  _12
REMARK    6  A    between atoms: _12  and  _13
REMARK    7  A    between atoms: _12  and  _15
REMARK    8  A    between atoms: _15  and  _16
REMARK    9  A    between atoms: _19  and  _21
REMARK   10  A    between atoms: _21  and  _22
REMARK   11  A    between atoms: _24  and  _26
REMARK   12  A    between atoms: _26  and  _27
REMARK   13  A    between atoms: _31  and  _32
REMARK   14  A    between atoms: _37  and  _39
REMARK   15  A    between atoms: _39  and  _40
REMARK   16  A    between atoms: _42  and  _44
REMARK   17  A    between atoms: _44  and  _45
REMARK   18  A    between atoms: _48  and  _50
REMARK   19  A    between atoms: _50  and  _51
REMARK   20  A    between atoms: _53  and  _55
REMARK   21  A    between atoms: _55  and  _56
REMARK   22  A    between atoms: _55  and  _58
REMARK   23  A    between atoms: _58  and  _59
REMARK   24  A    between atoms: _59  and  _60
REMARK   25  A    between atoms: _60  and  _61
REMARK   26  A    between atoms: _61  and  _62
REMARK   27  A    between atoms: _66  and  _68
REMARK   28  A    between atoms: _68  and  _69
REMARK   29  A    between atoms: _71  and  _73
REMARK   30  A    between atoms: _73  and  _74
REMARK   31  A    between atoms: _73  and  _76
REMARK   32  A    between atoms: _76  and  _77
REMARK   33  A    between atoms: _80  and  _82
REMARK   34  A    between atoms: _82  and  _83
REMARK   35  A    between atoms: _82  and  _85
REMARK   36  A    between atoms: _85  and  _86
REMARK   37  A    between atoms: _86  and  _87
REMARK   38  A    between atoms: _92  and  _94
REMARK   39  A    between atoms: _94  and  _95
REMARK   40  A    between atoms: _98  and  _100
REMARK   41  A    between atoms: _100  and  _101
REMARK   42  A    between atoms: _100  and  _103
REMARK   43  A    between atoms: _103  and  _104
REMARK   44  A    between atoms: _104  and  _105
REMARK   45  A    between atoms: _110  and  _112
REMARK   46  A    between atoms: _112  and  _113
REMARK   47  A    between atoms: _112  and  _115
REMARK   48  A    between atoms: _115  and  _116
REMARK   49  A    between atoms: _122  and  _124
REMARK   50  A    between atoms: _124  and  _125
REMARK   51  A    between atoms: _124  and  _127
REMARK   52  A    between atoms: _127  and  _128
REMARK   53  A    between atoms: _128  and  _129
REMARK   54  A    between atoms: _134  and  _136
REMARK   55  A    between atoms: _136  and  _137
REMARK   56  A    between atoms: _136  and  _139
REMARK   57  A    between atoms: _139  and  _140
REMARK   58  A    between atoms: _142  and  _144
REMARK   59  A    between atoms: _144  and  _145
REMARK   60  A    between atoms: _144  and  _147
REMARK   61  A    between atoms: _147  and  _148
REMARK   62  A    between atoms: _151  and  _153
REMARK   63  A    between atoms: _153  and  _154
REMARK   64  A    between atoms: _156  and  _158
REMARK   65  A    between atoms: _158  and  _159
REMARK   66  A    between atoms: _158  and  _161
REMARK   67  A    between atoms: _161  and  _162
REMARK   68  A    between atoms: _165  and  _167
REMARK   69  A    between atoms: _167  and  _168
REMARK   70  A    between atoms: _167  and  _170
REMARK   71  A    between atoms: _170  and  _171
REMARK   72  A    between atoms: _171  and  _172
REMARK   73  A    between atoms: _174  and  _176
REMARK   74  A    between atoms: _176  and  _177
REMARK   75  A    between atoms: _176  and  _179
REMARK   76  A    between atoms: _179  and  _180
REMARK   77  A    between atoms: _183  and  _185
REMARK   78  A    between atoms: _185  and  _186
REMARK   79  A    between atoms: _185  and  _188
REMARK   80  A    between atoms: _188  and  _189
REMARK   81  A    between atoms: _189  and  _190
REMARK   82  A    between atoms: _190  and  _191
REMARK   83  A    between atoms: _200  and  _202
REMARK   84  A    between atoms: _202  and  _203
REMARK   85  A    between atoms: _206  and  _208
REMARK   86  A    between atoms: _208  and  _209
REMARK   87  A    between atoms: _208  and  _211
REMARK   88  A    between atoms: _211  and  _212
REMARK   89  A    between atoms: _212  and  _213
REMARK   90  A    between atoms: _213  and  _214
REMARK   91  A    between atoms: _214  and  _215
REMARK   92  A    between atoms: _219  and  _221
REMARK   93  A    between atoms: _221  and  _222
REMARK   94  A    between atoms: _221  and  _224
REMARK   95  A    between atoms: _224  and  _225
REMARK   96  A    between atoms: _228  and  _230
REMARK   97  A    between atoms: _230  and  _231
REMARK   98  A    between atoms: _230  and  _233
REMARK   99  A    between atoms: _233  and  _234
REMARK  100  A    between atoms: _237  and  _239
REMARK  101  A    between atoms: _239  and  _240
REMARK  102  A    between atoms: _239  and  _242
REMARK  103  A    between atoms: _242  and  _243
REMARK  104  A    between atoms: _243  and  _244
REMARK  105  A    between atoms: _246  and  _248
REMARK  106  A    between atoms: _248  and  _249
REMARK  107  A    between atoms: _248  and  _251
REMARK  108  A    between atoms: _251  and  _252
REMARK  109  A    between atoms: _255  and  _257
REMARK  110  A    between atoms: _257  and  _258
REMARK  111  A    between atoms: _261  and  _263
REMARK  112  A    between atoms: _263  and  _264
REMARK  113  A    between atoms: _266  and  _268
REMARK  114  A    between atoms: _268  and  _269
REMARK  115  A    between atoms: _268  and  _271
REMARK  116  A    between atoms: _271  and  _272
REMARK  117  A    between atoms: _272  and  _273
REMARK  118  A    between atoms: _273  and  _274
REMARK  119  A    between atoms: _274  and  _275
REMARK  120  A    between atoms: _279  and  _281
REMARK  121  A    between atoms: _281  and  _282
REMARK  122  A    between atoms: _281  and  _284
REMARK  123  A    between atoms: _284  and  _285
REMARK  124  A    between atoms: _288  and  _290
REMARK  125  A    between atoms: _290  and  _291
REMARK  126  A    between atoms: _290  and  _293
REMARK  127  A    between atoms: _296  and  _298
REMARK  128  A    between atoms: _298  and  _299
REMARK  129  A    between atoms: _298  and  _301
REMARK  130  A    between atoms: _301  and  _302
REMARK  131  A    between atoms: _305  and  _307
REMARK  132  A    between atoms: _307  and  _308
REMARK  133  A    between atoms: _307  and  _310
REMARK  134  A    between atoms: _310  and  _311
REMARK  135  A    between atoms: _314  and  _316
REMARK  136  A    between atoms: _316  and  _317
REMARK  137  A    between atoms: _316  and  _319
REMARK  138  A    between atoms: _319  and  _320
REMARK  139  A    between atoms: _320  and  _321
REMARK  140  A    between atoms: _324  and  _326
REMARK  141  A    between atoms: _326  and  _327
REMARK  142  A    between atoms: _326  and  _329
REMARK  143  A    between atoms: _329  and  _330
REMARK  144  A    between atoms: _333  and  _335
REMARK  145  A    between atoms: _335  and  _336
REMARK  146  A    between atoms: _335  and  _338
REMARK  147  A    between atoms: _341  and  _343
REMARK  148  A    between atoms: _343  and  _344
REMARK  149  A    between atoms: _343  and  _346
REMARK  150  A    between atoms: _346  and  _347
REMARK  151  A    between atoms: _350  and  _352
REMARK  152  A    between atoms: _352  and  _353
REMARK  153  A    between atoms: _352  and  _355
REMARK  154  A    between atoms: _358  and  _360
REMARK  155  A    between atoms: _360  and  _361
REMARK  156  A    between atoms: _360  and  _363
REMARK  157  A    between atoms: _363  and  _364
REMARK  158  A    between atoms: _367  and  _369
REMARK  159  A    between atoms: _369  and  _370
REMARK  160  A    between atoms: _372  and  _374
REMARK  161  A    between atoms: _374  and  _375
REMARK  162  A    between atoms: _374  and  _377
REMARK  163  A    between atoms: _377  and  _378
REMARK  164  A    between atoms: _385  and  _386
REMARK  165  A    between atoms: _391  and  _393
REMARK  166  A    between atoms: _393  and  _394
REMARK  167  A    between atoms: _393  and  _396
REMARK  168  A    between atoms: _396  and  _397
REMARK  169  A    between atoms: _397  and  _398
REMARK  170  A    between atoms: _398  and  _399
REMARK  171  A    between atoms: _408  and  _410
REMARK  172  A    between atoms: _410  and  _411
REMARK  173  A    between atoms: _410  and  _413
REMARK  174  A    between atoms: _413  and  _414
REMARK  175  A    between atoms: _417  and  _419
REMARK  176  A    between atoms: _419  and  _420
REMARK  177  A    between atoms: _419  and  _422
REMARK  178  A    between atoms: _422  and  _423
REMARK  179  A    between atoms: _423  and  _424
REMARK  180  A    between atoms: _429  and  _431
REMARK  181  A    between atoms: _431  and  _432
REMARK  182  A    between atoms: _431  and  _434
REMARK  183  A    between atoms: _434  and  _435
REMARK  184  A    between atoms: _441  and  _443
REMARK  185  A    between atoms: _443  and  _444
REMARK  186  A    between atoms: _443  and  _446
REMARK  187  A    between atoms: _449  and  _451
REMARK  188  A    between atoms: _451  and  _452
REMARK  189  A    between atoms: _451  and  _454
REMARK  190  A    between atoms: _454  and  _455
REMARK  191  A    between atoms: _458  and  _460
REMARK  192  A    between atoms: _460  and  _461
REMARK  193  A    between atoms: _460  and  _463
REMARK  194  A    between atoms: _463  and  _464
REMARK  195  A    between atoms: _467  and  _469
REMARK  196  A    between atoms: _469  and  _470
REMARK  197  A    between atoms: _469  and  _472
REMARK  198  A    between atoms: _475  and  _477
REMARK  199  A    between atoms: _477  and  _478
REMARK  200  A    between atoms: _477  and  _480
REMARK  201  A    between atoms: _480  and  _481
REMARK  202  A    between atoms: _484  and  _486
REMARK  203  A    between atoms: _486  and  _487
REMARK  204  A    between atoms: _486  and  _489
REMARK  205  A    between atoms: _489  and  _490
REMARK  206  A    between atoms: _490  and  _491
REMARK  207  A    between atoms: _491  and  _492
REMARK  208  A    between atoms: _501  and  _503
REMARK  209  A    between atoms: _503  and  _504
REMARK  210  A    between atoms: _503  and  _506
REMARK  211  A    between atoms: _506  and  _507
REMARK  212  A    between atoms: _510  and  _512
REMARK  213  A    between atoms: _512  and  _513
REMARK  214  A    between atoms: _512  and  _515
REMARK  215  A    between atoms: _518  and  _520
REMARK  216  A    between atoms: _520  and  _521
REMARK  217  A    between atoms: _523  and  _525
REMARK  218  A    between atoms: _525  and  _526
REMARK  219  A    between atoms: _525  and  _528
REMARK  220  A    between atoms: _528  and  _529
REMARK  221  A    between atoms: _529  and  _530
REMARK  222  A    between atoms: _530  and  _531
REMARK  223  A    between atoms: _540  and  _542
REMARK  224  A    between atoms: _542  and  _543
REMARK  225  A    between atoms: _542  and  _545
REMARK  226  A    between atoms: _545  and  _546
REMARK  227  A    between atoms: _546  and  _547
REMARK  228  A    between atoms: _547  and  _548
REMARK  229  A    between atoms: _557  and  _559
REMARK  230  A    between atoms: _559  and  _560
REMARK  231  A    between atoms: _559  and  _562
REMARK  232  A    between atoms: _565  and  _567
REMARK  233  A    between atoms: _567  and  _568
REMARK  234  A    between atoms: _570  and  _572
REMARK  235  A    between atoms: _572  and  _573
REMARK  236  A    between atoms: _572  and  _575
REMARK  237  A    between atoms: _575  and  _576
REMARK  238  A    between atoms: _576  and  _577
REMARK  239  A    between atoms: _577  and  _578
REMARK  240  A    between atoms: _587  and  _589
REMARK  241  A    between atoms: _589  and  _590
REMARK  242  A    between atoms: _589  and  _592
REMARK  243  A    between atoms: _595  and  _597
REMARK  244  A    between atoms: _597  and  _598
REMARK  245  A    between atoms: _597  and  _600
REMARK  246  A    between atoms: _600  and  _601
REMARK  247  A    between atoms: _606  and  _607
REMARK  248  A    between atoms: _609  and  _611
REMARK  249  A    between atoms: _611  and  _612
REMARK  250  A    between atoms: _611  and  _614
REMARK  251  A    between atoms: _614  and  _615
REMARK  252  A    between atoms: _620  and  _622
REMARK  253  A    between atoms: _622  and  _623
REMARK  254  A    between atoms: _622  and  _625
REMARK  255  A    between atoms: _628  and  _630
REMARK  256  A    between atoms: _630  and  _631
REMARK  257  A    between atoms: _630  and  _633
REMARK  258  A    between atoms: _633  and  _634
REMARK  259  A    between atoms: _634  and  _635
REMARK  260  A    between atoms: _635  and  _636
REMARK  261  A    between atoms: _636  and  _637
REMARK  262  A    between atoms: _641  and  _643
REMARK  263  A    between atoms: _643  and  _644
REMARK  264  A    between atoms: _643  and  _646
REMARK  265  A    between atoms: _646  and  _647
REMARK  266  A    between atoms: _653  and  _655
REMARK  267  A    between atoms: _655  and  _656
REMARK  268  A    between atoms: _655  and  _658
REMARK  269  A    between atoms: _658  and  _659
REMARK  270  A    between atoms: _665  and  _666
REMARK  271  A    between atoms: _671  and  _673
REMARK  272  A    between atoms: _673  and  _674
REMARK  273  A    between atoms: _673  and  _676
REMARK  274  A    between atoms: _676  and  _677
REMARK  275  A    between atoms: _677  and  _678
REMARK  276  A    between atoms: _678  and  _679
REMARK  277  A    between atoms: _688  and  _690
REMARK  278  A    between atoms: _690  and  _691
REMARK  279  A    between atoms: _690  and  _693
REMARK  280  A    between atoms: _693  and  _694
REMARK  281  A    between atoms: _697  and  _699
REMARK  282  A    between atoms: _699  and  _700
REMARK  283  A    between atoms: _699  and  _702
REMARK  284  A    between atoms: _702  and  _703
REMARK  285  A    between atoms: _706  and  _708
REMARK  286  A    between atoms: _708  and  _709
REMARK  287  A    between atoms: _708  and  _711
REMARK  288  A    between atoms: _711  and  _712
REMARK  289  A    between atoms: _715  and  _717
REMARK  290  A    between atoms: _717  and  _718
REMARK  291  A    between atoms: _717  and  _720
REMARK  292  A    between atoms: _723  and  _725
REMARK  293  A    between atoms: _725  and  _726
REMARK  294  A    between atoms: _725  and  _728
REMARK  295  A    between atoms: _728  and  _729
REMARK  296  A    between atoms: _729  and  _730
REMARK  297  A    between atoms: _730  and  _731
REMARK  298  A    between atoms: _731  and  _732
REMARK  299  A    between atoms: _736  and  _738
REMARK  300  A    between atoms: _738  and  _739
REMARK  301  A    between atoms: _738  and  _741
REMARK  302  A    between atoms: _741  and  _742
REMARK  303  A    between atoms: _742  and  _743
REMARK  304  A    between atoms: _743  and  _744
REMARK  305  A    between atoms: _753  and  _755
REMARK  306  A    between atoms: _755  and  _756
REMARK  307  A    between atoms: _755  and  _758
REMARK  308  A    between atoms: _758  and  _759
REMARK  309  A    between atoms: _762  and  _764
REMARK  310  A    between atoms: _764  and  _765
REMARK  311  A    between atoms: _764  and  _767
REMARK  312  A    between atoms: _767  and  _768
REMARK  313  A    between atoms: _768  and  _769
REMARK  314  A    between atoms: _772  and  _774
REMARK  315  A    between atoms: _774  and  _775
REMARK  316  A    between atoms: _774  and  _777
REMARK  317  A    between atoms: _777  and  _778
REMARK  318  A    between atoms: _788  and  _790
REMARK  319  A    between atoms: _790  and  _791
REMARK  320  A    between atoms: _790  and  _793
REMARK  321  A    between atoms: _793  and  _794
REMARK  322  A    between atoms: _797  and  _799
REMARK  323  A    between atoms: _799  and  _800
REMARK  324  A    between atoms: _799  and  _802
REMARK  325  A    between atoms: _802  and  _803
REMARK  326  A    between atoms: _806  and  _808
REMARK  327  A    between atoms: _808  and  _809
REMARK  328  A    between atoms: _811  and  _813
REMARK  329  A    between atoms: _813  and  _814
REMARK  330  A    between atoms: _813  and  _816
REMARK  331  A    between atoms: _816  and  _817
REMARK  332  A    between atoms: _820  and  _822
REMARK  333  A    between atoms: _822  and  _823
REMARK  334  A    between atoms: _822  and  _825
REMARK  335  A    between atoms: _825  and  _826
REMARK  336  A    between atoms: _826  and  _827
REMARK  337  A    between atoms: _827  and  _828
REMARK  338  A    between atoms: _828  and  _829
REMARK  339  A    between atoms: _834  and  _835
REMARK  340  A    between atoms: _840  and  _842
REMARK  341  A    between atoms: _842  and  _843
REMARK  342  A    between atoms: _842  and  _845
REMARK  343  A    between atoms: _848  and  _850
REMARK  344  A    between atoms: _850  and  _851
REMARK  345  A    between atoms: _854  and  _856
REMARK  346  A    between atoms: _856  and  _857
REMARK  347  A    between atoms: _856  and  _859
REMARK  348  A    between atoms: _859  and  _860
REMARK  349  A    between atoms: _860  and  _861
REMARK  350  A    between atoms: _864  and  _866
REMARK  351  A    between atoms: _866  and  _867
REMARK  352  A    between atoms: _866  and  _869
REMARK  353  A    between atoms: _872  and  _874
REMARK  354  A    between atoms: _874  and  _875
REMARK  355  A    between atoms: _874  and  _877
REMARK  356  A    between atoms: _877  and  _878
REMARK  357  A    between atoms: _878  and  _879
REMARK  358  A    between atoms: _879  and  _880
REMARK                            x       y       z     vdW  Elec       q    Type
REMARK                         _______ _______ _______ _____ _____    ______ ____
ROOT
ATOM      1  O   HOH     1     -21.478  18.196 -30.748  0.00  0.00    +0.000 OA
ENDROOT
TORSDOF 0
REMARK  Name = ../refined-set-2016/4x8o/4x8o_pocket.pdb
REMARK  358 active torsions:
REMARK  status: ('A' for Active; 'I' for Inactive)
REMARK    1  A    between atoms: _1  and  _3
REMARK    2  A    between atoms: _3  and  _4
REMARK    3  A    between atoms: _3  and  _6
REMARK    4  A    between atoms: _6  and  _7
REMARK    5  A    between atoms: _10  and  _12
REMARK    6  A    between atoms: _12  and  _13
REMARK    7  A    between atoms: _12  and  _15
REMARK    8  A    between atoms: _15  and  _16
REMARK    9  A    between atoms: _19  and  _21
REMARK   10  A    between atoms: _21  and  _22
REMARK   11  A    between atoms: _24  and  _26
REMARK   12  A    between atoms: _26  and  _27
REMARK   13  A    between atoms: _31  and  _32
REMARK   14  A    between atoms: _37  and  _39
REMARK   15  A    between atoms: _39  and  _40
REMARK   16  A    between atoms: _42  and  _44
REMARK   17  A    between atoms: _44  and  _45
REMARK   18  A    between atoms: _48  and  _50
REMARK   19  A    between atoms: _50  and  _51
REMARK   20  A    between atoms: _53  and  _55
REMARK   21  A    between atoms: _55  and  _56
REMARK   22  A    between atoms: _55  and  _58
REMARK   23  A    between atoms: _58  and  _59
REMARK   24  A    between atoms: _59  and  _60
REMARK   25  A    between atoms: _60  and  _61
REMARK   26  A    between atoms: _61  and  _62
REMARK   27  A    between atoms: _66  and  _68
REMARK   28  A    between atoms: _68  and  _69
REMARK   29  A    between atoms: _71  and  _73
REMARK   30  A    between atoms: _73  and  _74
REMARK   31  A    between atoms: _73  and  _76
REMARK   32  A    between atoms: _76  and  _77
REMARK   33  A    between atoms: _80  and  _82
REMARK   34  A    between atoms: _82  and  _83
REMARK   35  A    between atoms: _82  and  _85
REMARK   36  A    between atoms: _85  and  _86
REMARK   37  A    between atoms: _86  and  _87
REMARK   38  A    between atoms: _92  and  _94
REMARK   39  A    between atoms: _94  and  _95
REMARK   40  A    between atoms: _98  and  _100
REMARK   41  A    between atoms: _100  and  _101
REMARK   42  A    between atoms: _100  and  _103
REMARK   43  A    between atoms: _103  and  _104
REMARK   44  A    between atoms: _104  and  _105
REMARK   45  A    between atoms: _110  and  _112
REMARK   46  A    between atoms: _112  and  _113
REMARK   47  A    between atoms: _112  and  _115
REMARK   48  A    between atoms: _115  and  _116
REMARK   49  A    between atoms: _122  and  _124
REMARK   50  A    between atoms: _124  and  _125
REMARK   51  A    between atoms: _124  and  _127
REMARK   52  A    between atoms: _127  and  _128
REMARK   53  A    between atoms: _128  and  _129
REMARK   54  A    between atoms: _134  and  _136
REMARK   55  A    between atoms: _136  and  _137
REMARK   56  A    between atoms: _136  and  _139
REMARK   57  A    between atoms: _139  and  _140
REMARK   58  A    between atoms: _142  and  _144
REMARK   59  A    between atoms: _144  and  _145
REMARK   60  A    between atoms: _144  and  _147
REMARK   61  A    between atoms: _147  and  _148
REMARK   62  A    between atoms: _151  and  _153
REMARK   63  A    between atoms: _153  and  _154
REMARK   64  A    between atoms: _156  and  _158
REMARK   65  A    between atoms: _158  and  _159
REMARK   66  A    between atoms: _158  and  _161
REMARK   67  A    between atoms: _161  and  _162
REMARK   68  A    between atoms: _165  and  _167
REMARK   69  A    between atoms: _167  and  _168
REMARK   70  A    between atoms: _167  and  _170
REMARK   71  A    between atoms: _170  and  _171
REMARK   72  A    between atoms: _171  and  _172
REMARK   73  A    between atoms: _174  and  _176
REMARK   74  A    between atoms: _176  and  _177
REMARK   75  A    between atoms: _176  and  _179
REMARK   76  A    between atoms: _179  and  _180
REMARK   77  A    between atoms: _183  and  _185
REMARK   78  A    between atoms: _185  and  _186
REMARK   79  A    between atoms: _185  and  _188
REMARK   80  A    between atoms: _188  and  _189
REMARK   81  A    between atoms: _189  and  _190
REMARK   82  A    between atoms: _190  and  _191
REMARK   83  A    between atoms: _200  and  _202
REMARK   84  A    between atoms: _202  and  _203
REMARK   85  A    between atoms: _206  and  _208
REMARK   86  A    between atoms: _208  and  _209
REMARK   87  A    between atoms: _208  and  _211
REMARK   88  A    between atoms: _211  and  _212
REMARK   89  A    between atoms: _212  and  _213
REMARK   90  A    between atoms: _213  and  _214
REMARK   91  A    between atoms: _214  and  _215
REMARK   92  A    between atoms: _219  and  _221
REMARK   93  A    between atoms: _221  and  _222
REMARK   94  A    between atoms: _221  and  _224
REMARK   95  A    between atoms: _224  and  _225
REMARK   96  A    between atoms: _228  and  _230
REMARK   97  A    between atoms: _230  and  _231
REMARK   98  A    between atoms: _230  and  _233
REMARK   99  A    between atoms: _233  and  _234
REMARK  100  A    between atoms: _237  and  _239
REMARK  101  A    between atoms: _239  and  _240
REMARK  102  A    between atoms: _239  and  _242
REMARK  103  A    between atoms: _242  and  _243
REMARK  104  A    between atoms: _243  and  _244
REMARK  105  A    between atoms: _246  and  _248
REMARK  106  A    between atoms: _248  and  _249
REMARK  107  A    between atoms: _248  and  _251
REMARK  108  A    between atoms: _251  and  _252
REMARK  109  A    between atoms: _255  and  _257
REMARK  110  A    between atoms: _257  and  _258
REMARK  111  A    between atoms: _261  and  _263
REMARK  112  A    between atoms: _263  and  _264
REMARK  113  A    between atoms: _266  and  _268
REMARK  114  A    between atoms: _268  and  _269
REMARK  115  A    between atoms: _268  and  _271
REMARK  116  A    between atoms: _271  and  _272
REMARK  117  A    between atoms: _272  and  _273
REMARK  118  A    between atoms: _273  and  _274
REMARK  119  A    between atoms: _274  and  _275
REMARK  120  A    between atoms: _279  and  _281
REMARK  121  A    between atoms: _281  and  _282
REMARK  122  A    between atoms: _281  and  _284
REMARK  123  A    between atoms: _284  and  _285
REMARK  124  A    between atoms: _288  and  _290
REMARK  125  A    between atoms: _290  and  _291
REMARK  126  A    between atoms: _290  and  _293
REMARK  127  A    between atoms: _296  and  _298
REMARK  128  A    between atoms: _298  and  _299
REMARK  129  A    between atoms: _298  and  _301
REMARK  130  A    between atoms: _301  and  _302
REMARK  131  A    between atoms: _305  and  _307
REMARK  132  A    between atoms: _307  and  _308
REMARK  133  A    between atoms: _307  and  _310
REMARK  134  A    between atoms: _310  and  _311
REMARK  135  A    between atoms: _314  and  _316
REMARK  136  A    between atoms: _316  and  _317
REMARK  137  A    between atoms: _316  and  _319
REMARK  138  A    between atoms: _319  and  _320
REMARK  139  A    between atoms: _320  and  _321
REMARK  140  A    between atoms: _324  and  _326
REMARK  141  A    between atoms: _326  and  _327
REMARK  142  A    between atoms: _326  and  _329
REMARK  143  A    between atoms: _329  and  _330
REMARK  144  A    between atoms: _333  and  _335
REMARK  145  A    between atoms: _335  and  _336
REMARK  146  A    between atoms: _335  and  _338
REMARK  147  A    between atoms: _341  and  _343
REMARK  148  A    between atoms: _343  and  _344
REMARK  149  A    between atoms: _343  and  _346
REMARK  150  A    between atoms: _346  and  _347
REMARK  151  A    between atoms: _350  and  _352
REMARK  152  A    between atoms: _352  and  _353
REMARK  153  A    between atoms: _352  and  _355
REMARK  154  A    between atoms: _358  and  _360
REMARK  155  A    between atoms: _360  and  _361
REMARK  156  A    between atoms: _360  and  _363
REMARK  157  A    between atoms: _363  and  _364
REMARK  158  A    between atoms: _367  and  _369
REMARK  159  A    between atoms: _369  and  _370
REMARK  160  A    between atoms: _372  and  _374
REMARK  161  A    between atoms: _374  and  _375
REMARK  162  A    between atoms: _374  and  _377
REMARK  163  A    between atoms: _377  and  _378
REMARK  164  A    between atoms: _385  and  _386
REMARK  165  A    between atoms: _391  and  _393
REMARK  166  A    between atoms: _393  and  _394
REMARK  167  A    between atoms: _393  and  _396
REMARK  168  A    between atoms: _396  and  _397
REMARK  169  A    between atoms: _397  and  _398
REMARK  170  A    between atoms: _398  and  _399
REMARK  171  A    between atoms: _408  and  _410
REMARK  172  A    between atoms: _410  and  _411
REMARK  173  A    between atoms: _410  and  _413
REMARK  174  A    between atoms: _413  and  _414
REMARK  175  A    between atoms: _417  and  _419
REMARK  176  A    between atoms: _419  and  _420
REMARK  177  A    between atoms: _419  and  _422
REMARK  178  A    between atoms: _422  and  _423
REMARK  179  A    between atoms: _423  and  _424
REMARK  180  A    between atoms: _429  and  _431
REMARK  181  A    between atoms: _431  and  _432
REMARK  182  A    between atoms: _431  and  _434
REMARK  183  A    between atoms: _434  and  _435
REMARK  184  A    between atoms: _441  and  _443
REMARK  185  A    between atoms: _443  and  _444
REMARK  186  A    between atoms: _443  and  _446
REMARK  187  A    between atoms: _449  and  _451
REMARK  188  A    between atoms: _451  and  _452
REMARK  189  A    between atoms: _451  and  _454
REMARK  190  A    between atoms: _454  and  _455
REMARK  191  A    between atoms: _458  and  _460
REMARK  192  A    between atoms: _460  and  _461
REMARK  193  A    between atoms: _460  and  _463
REMARK  194  A    between atoms: _463  and  _464
REMARK  195  A    between atoms: _467  and  _469
REMARK  196  A    between atoms: _469  and  _470
REMARK  197  A    between atoms: _469  and  _472
REMARK  198  A    between atoms: _475  and  _477
REMARK  199  A    between atoms: _477  and  _478
REMARK  200  A    between atoms: _477  and  _480
REMARK  201  A    between atoms: _480  and  _481
REMARK  202  A    between atoms: _484  and  _486
REMARK  203  A    between atoms: _486  and  _487
REMARK  204  A    between atoms: _486  and  _489
REMARK  205  A    between atoms: _489  and  _490
REMARK  206  A    between atoms: _490  and  _491
REMARK  207  A    between atoms: _491  and  _492
REMARK  208  A    between atoms: _501  and  _503
REMARK  209  A    between atoms: _503  and  _504
REMARK  210  A    between atoms: _503  and  _506
REMARK  211  A    between atoms: _506  and  _507
REMARK  212  A    between atoms: _510  and  _512
REMARK  213  A    between atoms: _512  and  _513
REMARK  214  A    between atoms: _512  and  _515
REMARK  215  A    between atoms: _518  and  _520
REMARK  216  A    between atoms: _520  and  _521
REMARK  217  A    between atoms: _523  and  _525
REMARK  218  A    between atoms: _525  and  _526
REMARK  219  A    between atoms: _525  and  _528
REMARK  220  A    between atoms: _528  and  _529
REMARK  221  A    between atoms: _529  and  _530
REMARK  222  A    between atoms: _530  and  _531
REMARK  223  A    between atoms: _540  and  _542
REMARK  224  A    between atoms: _542  and  _543
REMARK  225  A    between atoms: _542  and  _545
REMARK  226  A    between atoms: _545  and  _546
REMARK  227  A    between atoms: _546  and  _547
REMARK  228  A    between atoms: _547  and  _548
REMARK  229  A    between atoms: _557  and  _559
REMARK  230  A    between atoms: _559  and  _560
REMARK  231  A    between atoms: _559  and  _562
REMARK  232  A    between atoms: _565  and  _567
REMARK  233  A    between atoms: _567  and  _568
REMARK  234  A    between atoms: _570  and  _572
REMARK  235  A    between atoms: _572  and  _573
REMARK  236  A    between atoms: _572  and  _575
REMARK  237  A    between atoms: _575  and  _576
REMARK  238  A    between atoms: _576  and  _577
REMARK  239  A    between atoms: _577  and  _578
REMARK  240  A    between atoms: _587  and  _589
REMARK  241  A    between atoms: _589  and  _590
REMARK  242  A    between atoms: _589  and  _592
REMARK  243  A    between atoms: _595  and  _597
REMARK  244  A    between atoms: _597  and  _598
REMARK  245  A    between atoms: _597  and  _600
REMARK  246  A    between atoms: _600  and  _601
REMARK  247  A    between atoms: _606  and  _607
REMARK  248  A    between atoms: _609  and  _611
REMARK  249  A    between atoms: _611  and  _612
REMARK  250  A    between atoms: _611  and  _614
REMARK  251  A    between atoms: _614  and  _615
REMARK  252  A    between atoms: _620  and  _622
REMARK  253  A    between atoms: _622  and  _623
REMARK  254  A    between atoms: _622  and  _625
REMARK  255  A    between atoms: _628  and  _630
REMARK  256  A    between atoms: _630  and  _631
REMARK  257  A    between atoms: _630  and  _633
REMARK  258  A    between atoms: _633  and  _634
REMARK  259  A    between atoms: _634  and  _635
REMARK  260  A    between atoms: _635  and  _636
REMARK  261  A    between atoms: _636  and  _637
REMARK  262  A    between atoms: _641  and  _643
REMARK  263  A    between atoms: _643  and  _644
REMARK  264  A    between atoms: _643  and  _646
REMARK  265  A    between atoms: _646  and  _647
REMARK  266  A    between atoms: _653  and  _655
REMARK  267  A    between atoms: _655  and  _656
REMARK  268  A    between atoms: _655  and  _658
REMARK  269  A    between atoms: _658  and  _659
REMARK  270  A    between atoms: _665  and  _666
REMARK  271  A    between atoms: _671  and  _673
REMARK  272  A    between atoms: _673  and  _674
REMARK  273  A    between atoms: _673  and  _676
REMARK  274  A    between atoms: _676  and  _677
REMARK  275  A    between atoms: _677  and  _678
REMARK  276  A    between atoms: _678  and  _679
REMARK  277  A    between atoms: _688  and  _690
REMARK  278  A    between atoms: _690  and  _691
REMARK  279  A    between atoms: _690  and  _693
REMARK  280  A    between atoms: _693  and  _694
REMARK  281  A    between atoms: _697  and  _699
REMARK  282  A    between atoms: _699  and  _700
REMARK  283  A    between atoms: _699  and  _702
REMARK  284  A    between atoms: _702  and  _703
REMARK  285  A    between atoms: _706  and  _708
REMARK  286  A    between atoms: _708  and  _709
REMARK  287  A    between atoms: _708  and  _711
REMARK  288  A    between atoms: _711  and  _712
REMARK  289  A    between atoms: _715  and  _717
REMARK  290  A    between atoms: _717  and  _718
REMARK  291  A    between atoms: _717  and  _720
REMARK  292  A    between atoms: _723  and  _725
REMARK  293  A    between atoms: _725  and  _726
REMARK  294  A    between atoms: _725  and  _728
REMARK  295  A    between atoms: _728  and  _729
REMARK  296  A    between atoms: _729  and  _730
REMARK  297  A    between atoms: _730  and  _731
REMARK  298  A    between atoms: _731  and  _732
REMARK  299  A    between atoms: _736  and  _738
REMARK  300  A    between atoms: _738  and  _739
REMARK  301  A    between atoms: _738  and  _741
REMARK  302  A    between atoms: _741  and  _742
REMARK  303  A    between atoms: _742  and  _743
REMARK  304  A    between atoms: _743  and  _744
REMARK  305  A    between atoms: _753  and  _755
REMARK  306  A    between atoms: _755  and  _756
REMARK  307  A    between atoms: _755  and  _758
REMARK  308  A    between atoms: _758  and  _759
REMARK  309  A    between atoms: _762  and  _764
REMARK  310  A    between atoms: _764  and  _765
REMARK  311  A    between atoms: _764  and  _767
REMARK  312  A    between atoms: _767  and  _768
REMARK  313  A    between atoms: _768  and  _769
REMARK  314  A    between atoms: _772  and  _774
REMARK  315  A    between atoms: _774  and  _775
REMARK  316  A    between atoms: _774  and  _777
REMARK  317  A    between atoms: _777  and  _778
REMARK  318  A    between atoms: _788  and  _790
REMARK  319  A    between atoms: _790  and  _791
REMARK  320  A    between atoms: _790  and  _793
REMARK  321  A    between atoms: _793  and  _794
REMARK  322  A    between atoms: _797  and  _799
REMARK  323  A    between atoms: _799  and  _800
REMARK  324  A    between atoms: _799  and  _802
REMARK  325  A    between atoms: _802  and  _803
REMARK  326  A    between atoms: _806  and  _808
REMARK  327  A    between atoms: _808  and  _809
REMARK  328  A    between atoms: _811  and  _813
REMARK  329  A    between atoms: _813  and  _814
REMARK  330  A    between atoms: _813  and  _816
REMARK  331  A    between atoms: _816  and  _817
REMARK  332  A    between atoms: _820  and  _822
REMARK  333  A    between atoms: _822  and  _823
REMARK  334  A    between atoms: _822  and  _825
REMARK  335  A    between atoms: _825  and  _826
REMARK  336  A    between atoms: _826  and  _827
REMARK  337  A    between atoms: _827  and  _828
REMARK  338  A    between atoms: _828  and  _829
REMARK  339  A    between atoms: _834  and  _835
REMARK  340  A    between atoms: _840  and  _842
REMARK  341  A    between atoms: _842  and  _843
REMARK  342  A    between atoms: _842  and  _845
REMARK  343  A    between atoms: _848  and  _850
REMARK  344  A    between atoms: _850  and  _851
REMARK  345  A    between atoms: _854  and  _856
REMARK  346  A    between atoms: _856  and  _857
REMARK  347  A    between atoms: _856  and  _859
REMARK  348  A    between atoms: _859  and  _860
REMARK  349  A    between atoms: _860  and  _861
REMARK  350  A    between atoms: _864  and  _866
REMARK  351  A    between atoms: _866  and  _867
REMARK  352  A    between atoms: _866  and  _869
REMARK  353  A    between atoms: _872  and  _874
REMARK  354  A    between atoms: _874  and  _875
REMARK  355  A    between atoms: _874  and  _877
REMARK  356  A    between atoms: _877  and  _878
REMARK  357  A    between atoms: _878  and  _879
REMARK  358  A    between atoms: _879  and  _880
REMARK                            x       y       z     vdW  Elec       q    Type
REMARK                         _______ _______ _______ _____ _____    ______ ____
ROOT
ATOM      1  O   HOH     1     -19.051  20.966 -33.293  0.00  0.00    +0.000 OA
ENDROOT
TORSDOF 0
REMARK  Name = ../refined-set-2016/4x8o/4x8o_pocket.pdb
REMARK  358 active torsions:
REMARK  status: ('A' for Active; 'I' for Inactive)
REMARK    1  A    between atoms: _1  and  _3
REMARK    2  A    between atoms: _3  and  _4
REMARK    3  A    between atoms: _3  and  _6
REMARK    4  A    between atoms: _6  and  _7
REMARK    5  A    between atoms: _10  and  _12
REMARK    6  A    between atoms: _12  and  _13
REMARK    7  A    between atoms: _12  and  _15
REMARK    8  A    between atoms: _15  and  _16
REMARK    9  A    between atoms: _19  and  _21
REMARK   10  A    between atoms: _21  and  _22
REMARK   11  A    between atoms: _24  and  _26
REMARK   12  A    between atoms: _26  and  _27
REMARK   13  A    between atoms: _31  and  _32
REMARK   14  A    between atoms: _37  and  _39
REMARK   15  A    between atoms: _39  and  _40
REMARK   16  A    between atoms: _42  and  _44
REMARK   17  A    between atoms: _44  and  _45
REMARK   18  A    between atoms: _48  and  _50
REMARK   19  A    between atoms: _50  and  _51
REMARK   20  A    between atoms: _53  and  _55
REMARK   21  A    between atoms: _55  and  _56
REMARK   22  A    between atoms: _55  and  _58
REMARK   23  A    between atoms: _58  and  _59
REMARK   24  A    between atoms: _59  and  _60
REMARK   25  A    between atoms: _60  and  _61
REMARK   26  A    between atoms: _61  and  _62
REMARK   27  A    between atoms: _66  and  _68
REMARK   28  A    between atoms: _68  and  _69
REMARK   29  A    between atoms: _71  and  _73
REMARK   30  A    between atoms: _73  and  _74
REMARK   31  A    between atoms: _73  and  _76
REMARK   32  A    between atoms: _76  and  _77
REMARK   33  A    between atoms: _80  and  _82
REMARK   34  A    between atoms: _82  and  _83
REMARK   35  A    between atoms: _82  and  _85
REMARK   36  A    between atoms: _85  and  _86
REMARK   37  A    between atoms: _86  and  _87
REMARK   38  A    between atoms: _92  and  _94
REMARK   39  A    between atoms: _94  and  _95
REMARK   40  A    between atoms: _98  and  _100
REMARK   41  A    between atoms: _100  and  _101
REMARK   42  A    between atoms: _100  and  _103
REMARK   43  A    between atoms: _103  and  _104
REMARK   44  A    between atoms: _104  and  _105
REMARK   45  A    between atoms: _110  and  _112
REMARK   46  A    between atoms: _112  and  _113
REMARK   47  A    between atoms: _112  and  _115
REMARK   48  A    between atoms: _115  and  _116
REMARK   49  A    between atoms: _122  and  _124
REMARK   50  A    between atoms: _124  and  _125
REMARK   51  A    between atoms: _124  and  _127
REMARK   52  A    between atoms: _127  and  _128
REMARK   53  A    between atoms: _128  and  _129
REMARK   54  A    between atoms: _134  and  _136
REMARK   55  A    between atoms: _136  and  _137
REMARK   56  A    between atoms: _136  and  _139
REMARK   57  A    between atoms: _139  and  _140
REMARK   58  A    between atoms: _142  and  _144
REMARK   59  A    between atoms: _144  and  _145
REMARK   60  A    between atoms: _144  and  _147
REMARK   61  A    between atoms: _147  and  _148
REMARK   62  A    between atoms: _151  and  _153
REMARK   63  A    between atoms: _153  and  _154
REMARK   64  A    between atoms: _156  and  _158
REMARK   65  A    between atoms: _158  and  _159
REMARK   66  A    between atoms: _158  and  _161
REMARK   67  A    between atoms: _161  and  _162
REMARK   68  A    between atoms: _165  and  _167
REMARK   69  A    between atoms: _167  and  _168
REMARK   70  A    between atoms: _167  and  _170
REMARK   71  A    between atoms: _170  and  _171
REMARK   72  A    between atoms: _171  and  _172
REMARK   73  A    between atoms: _174  and  _176
REMARK   74  A    between atoms: _176  and  _177
REMARK   75  A    between atoms: _176  and  _179
REMARK   76  A    between atoms: _179  and  _180
REMARK   77  A    between atoms: _183  and  _185
REMARK   78  A    between atoms: _185  and  _186
REMARK   79  A    between atoms: _185  and  _188
REMARK   80  A    between atoms: _188  and  _189
REMARK   81  A    between atoms: _189  and  _190
REMARK   82  A    between atoms: _190  and  _191
REMARK   83  A    between atoms: _200  and  _202
REMARK   84  A    between atoms: _202  and  _203
REMARK   85  A    between atoms: _206  and  _208
REMARK   86  A    between atoms: _208  and  _209
REMARK   87  A    between atoms: _208  and  _211
REMARK   88  A    between atoms: _211  and  _212
REMARK   89  A    between atoms: _212  and  _213
REMARK   90  A    between atoms: _213  and  _214
REMARK   91  A    between atoms: _214  and  _215
REMARK   92  A    between atoms: _219  and  _221
REMARK   93  A    between atoms: _221  and  _222
REMARK   94  A    between atoms: _221  and  _224
REMARK   95  A    between atoms: _224  and  _225
REMARK   96  A    between atoms: _228  and  _230
REMARK   97  A    between atoms: _230  and  _231
REMARK   98  A    between atoms: _230  and  _233
REMARK   99  A    between atoms: _233  and  _234
REMARK  100  A    between atoms: _237  and  _239
REMARK  101  A    between atoms: _239  and  _240
REMARK  102  A    between atoms: _239  and  _242
REMARK  103  A    between atoms: _242  and  _243
REMARK  104  A    between atoms: _243  and  _244
REMARK  105  A    between atoms: _246  and  _248
REMARK  106  A    between atoms: _248  and  _249
REMARK  107  A    between atoms: _248  and  _251
REMARK  108  A    between atoms: _251  and  _252
REMARK  109  A    between atoms: _255  and  _257
REMARK  110  A    between atoms: _257  and  _258
REMARK  111  A    between atoms: _261  and  _263
REMARK  112  A    between atoms: _263  and  _264
REMARK  113  A    between atoms: _266  and  _268
REMARK  114  A    between atoms: _268  and  _269
REMARK  115  A    between atoms: _268  and  _271
REMARK  116  A    between atoms: _271  and  _272
REMARK  117  A    between atoms: _272  and  _273
REMARK  118  A    between atoms: _273  and  _274
REMARK  119  A    between atoms: _274  and  _275
REMARK  120  A    between atoms: _279  and  _281
REMARK  121  A    between atoms: _281  and  _282
REMARK  122  A    between atoms: _281  and  _284
REMARK  123  A    between atoms: _284  and  _285
REMARK  124  A    between atoms: _288  and  _290
REMARK  125  A    between atoms: _290  and  _291
REMARK  126  A    between atoms: _290  and  _293
REMARK  127  A    between atoms: _296  and  _298
REMARK  128  A    between atoms: _298  and  _299
REMARK  129  A    between atoms: _298  and  _301
REMARK  130  A    between atoms: _301  and  _302
REMARK  131  A    between atoms: _305  and  _307
REMARK  132  A    between atoms: _307  and  _308
REMARK  133  A    between atoms: _307  and  _310
REMARK  134  A    between atoms: _310  and  _311
REMARK  135  A    between atoms: _314  and  _316
REMARK  136  A    between atoms: _316  and  _317
REMARK  137  A    between atoms: _316  and  _319
REMARK  138  A    between atoms: _319  and  _320
REMARK  139  A    between atoms: _320  and  _321
REMARK  140  A    between atoms: _324  and  _326
REMARK  141  A    between atoms: _326  and  _327
REMARK  142  A    between atoms: _326  and  _329
REMARK  143  A    between atoms: _329  and  _330
REMARK  144  A    between atoms: _333  and  _335
REMARK  145  A    between atoms: _335  and  _336
REMARK  146  A    between atoms: _335  and  _338
REMARK  147  A    between atoms: _341  and  _343
REMARK  148  A    between atoms: _343  and  _344
REMARK  149  A    between atoms: _343  and  _346
REMARK  150  A    between atoms: _346  and  _347
REMARK  151  A    between atoms: _350  and  _352
REMARK  152  A    between atoms: _352  and  _353
REMARK  153  A    between atoms: _352  and  _355
REMARK  154  A    between atoms: _358  and  _360
REMARK  155  A    between atoms: _360  and  _361
REMARK  156  A    between atoms: _360  and  _363
REMARK  157  A    between atoms: _363  and  _364
REMARK  158  A    between atoms: _367  and  _369
REMARK  159  A    between atoms: _369  and  _370
REMARK  160  A    between atoms: _372  and  _374
REMARK  161  A    between atoms: _374  and  _375
REMARK  162  A    between atoms: _374  and  _377
REMARK  163  A    between atoms: _377  and  _378
REMARK  164  A    between atoms: _385  and  _386
REMARK  165  A    between atoms: _391  and  _393
REMARK  166  A    between atoms: _393  and  _394
REMARK  167  A    between atoms: _393  and  _396
REMARK  168  A    between atoms: _396  and  _397
REMARK  169  A    between atoms: _397  and  _398
REMARK  170  A    between atoms: _398  and  _399
REMARK  171  A    between atoms: _408  and  _410
REMARK  172  A    between atoms: _410  and  _411
REMARK  173  A    between atoms: _410  and  _413
REMARK  174  A    between atoms: _413  and  _414
REMARK  175  A    between atoms: _417  and  _419
REMARK  176  A    between atoms: _419  and  _420
REMARK  177  A    between atoms: _419  and  _422
REMARK  178  A    between atoms: _422  and  _423
REMARK  179  A    between atoms: _423  and  _424
REMARK  180  A    between atoms: _429  and  _431
REMARK  181  A    between atoms: _431  and  _432
REMARK  182  A    between atoms: _431  and  _434
REMARK  183  A    between atoms: _434  and  _435
REMARK  184  A    between atoms: _441  and  _443
REMARK  185  A    between atoms: _443  and  _444
REMARK  186  A    between atoms: _443  and  _446
REMARK  187  A    between atoms: _449  and  _451
REMARK  188  A    between atoms: _451  and  _452
REMARK  189  A    between atoms: _451  and  _454
REMARK  190  A    between atoms: _454  and  _455
REMARK  191  A    between atoms: _458  and  _460
REMARK  192  A    between atoms: _460  and  _461
REMARK  193  A    between atoms: _460  and  _463
REMARK  194  A    between atoms: _463  and  _464
REMARK  195  A    between atoms: _467  and  _469
REMARK  196  A    between atoms: _469  and  _470
REMARK  197  A    between atoms: _469  and  _472
REMARK  198  A    between atoms: _475  and  _477
REMARK  199  A    between atoms: _477  and  _478
REMARK  200  A    between atoms: _477  and  _480
REMARK  201  A    between atoms: _480  and  _481
REMARK  202  A    between atoms: _484  and  _486
REMARK  203  A    between atoms: _486  and  _487
REMARK  204  A    between atoms: _486  and  _489
REMARK  205  A    between atoms: _489  and  _490
REMARK  206  A    between atoms: _490  and  _491
REMARK  207  A    between atoms: _491  and  _492
REMARK  208  A    between atoms: _501  and  _503
REMARK  209  A    between atoms: _503  and  _504
REMARK  210  A    between atoms: _503  and  _506
REMARK  211  A    between atoms: _506  and  _507
REMARK  212  A    between atoms: _510  and  _512
REMARK  213  A    between atoms: _512  and  _513
REMARK  214  A    between atoms: _512  and  _515
REMARK  215  A    between atoms: _518  and  _520
REMARK  216  A    between atoms: _520  and  _521
REMARK  217  A    between atoms: _523  and  _525
REMARK  218  A    between atoms: _525  and  _526
REMARK  219  A    between atoms: _525  and  _528
REMARK  220  A    between atoms: _528  and  _529
REMARK  221  A    between atoms: _529  and  _530
REMARK  222  A    between atoms: _530  and  _531
REMARK  223  A    between atoms: _540  and  _542
REMARK  224  A    between atoms: _542  and  _543
REMARK  225  A    between atoms: _542  and  _545
REMARK  226  A    between atoms: _545  and  _546
REMARK  227  A    between atoms: _546  and  _547
REMARK  228  A    between atoms: _547  and  _548
REMARK  229  A    between atoms: _557  and  _559
REMARK  230  A    between atoms: _559  and  _560
REMARK  231  A    between atoms: _559  and  _562
REMARK  232  A    between atoms: _565  and  _567
REMARK  233  A    between atoms: _567  and  _568
REMARK  234  A    between atoms: _570  and  _572
REMARK  235  A    between atoms: _572  and  _573
REMARK  236  A    between atoms: _572  and  _575
REMARK  237  A    between atoms: _575  and  _576
REMARK  238  A    between atoms: _576  and  _577
REMARK  239  A    between atoms: _577  and  _578
REMARK  240  A    between atoms: _587  and  _589
REMARK  241  A    between atoms: _589  and  _590
REMARK  242  A    between atoms: _589  and  _592
REMARK  243  A    between atoms: _595  and  _597
REMARK  244  A    between atoms: _597  and  _598
REMARK  245  A    between atoms: _597  and  _600
REMARK  246  A    between atoms: _600  and  _601
REMARK  247  A    between atoms: _606  and  _607
REMARK  248  A    between atoms: _609  and  _611
REMARK  249  A    between atoms: _611  and  _612
REMARK  250  A    between atoms: _611  and  _614
REMARK  251  A    between atoms: _614  and  _615
REMARK  252  A    between atoms: _620  and  _622
REMARK  253  A    between atoms: _622  and  _623
REMARK  254  A    between atoms: _622  and  _625
REMARK  255  A    between atoms: _628  and  _630
REMARK  256  A    between atoms: _630  and  _631
REMARK  257  A    between atoms: _630  and  _633
REMARK  258  A    between atoms: _633  and  _634
REMARK  259  A    between atoms: _634  and  _635
REMARK  260  A    between atoms: _635  and  _636
REMARK  261  A    between atoms: _636  and  _637
REMARK  262  A    between atoms: _641  and  _643
REMARK  263  A    between atoms: _643  and  _644
REMARK  264  A    between atoms: _643  and  _646
REMARK  265  A    between atoms: _646  and  _647
REMARK  266  A    between atoms: _653  and  _655
REMARK  267  A    between atoms: _655  and  _656
REMARK  268  A    between atoms: _655  and  _658
REMARK  269  A    between atoms: _658  and  _659
REMARK  270  A    between atoms: _665  and  _666
REMARK  271  A    between atoms: _671  and  _673
REMARK  272  A    between atoms: _673  and  _674
REMARK  273  A    between atoms: _673  and  _676
REMARK  274  A    between atoms: _676  and  _677
REMARK  275  A    between atoms: _677  and  _678
REMARK  276  A    between atoms: _678  and  _679
REMARK  277  A    between atoms: _688  and  _690
REMARK  278  A    between atoms: _690  and  _691
REMARK  279  A    between atoms: _690  and  _693
REMARK  280  A    between atoms: _693  and  _694
REMARK  281  A    between atoms: _697  and  _699
REMARK  282  A    between atoms: _699  and  _700
REMARK  283  A    between atoms: _699  and  _702
REMARK  284  A    between atoms: _702  and  _703
REMARK  285  A    between atoms: _706  and  _708
REMARK  286  A    between atoms: _708  and  _709
REMARK  287  A    between atoms: _708  and  _711
REMARK  288  A    between atoms: _711  and  _712
REMARK  289  A    between atoms: _715  and  _717
REMARK  290  A    between atoms: _717  and  _718
REMARK  291  A    between atoms: _717  and  _720
REMARK  292  A    between atoms: _723  and  _725
REMARK  293  A    between atoms: _725  and  _726
REMARK  294  A    between atoms: _725  and  _728
REMARK  295  A    between atoms: _728  and  _729
REMARK  296  A    between atoms: _729  and  _730
REMARK  297  A    between atoms: _730  and  _731
REMARK  298  A    between atoms: _731  and  _732
REMARK  299  A    between atoms: _736  and  _738
REMARK  300  A    between atoms: _738  and  _739
REMARK  301  A    between atoms: _738  and  _741
REMARK  302  A    between atoms: _741  and  _742
REMARK  303  A    between atoms: _742  and  _743
REMARK  304  A    between atoms: _743  and  _744
REMARK  305  A    between atoms: _753  and  _755
REMARK  306  A    between atoms: _755  and  _756
REMARK  307  A    between atoms: _755  and  _758
REMARK  308  A    between atoms: _758  and  _759
REMARK  309  A    between atoms: _762  and  _764
REMARK  310  A    between atoms: _764  and  _765
REMARK  311  A    between atoms: _764  and  _767
REMARK  312  A    between atoms: _767  and  _768
REMARK  313  A    between atoms: _768  and  _769
REMARK  314  A    between atoms: _772  and  _774
REMARK  315  A    between atoms: _774  and  _775
REMARK  316  A    between atoms: _774  and  _777
REMARK  317  A    between atoms: _777  and  _778
REMARK  318  A    between atoms: _788  and  _790
REMARK  319  A    between atoms: _790  and  _791
REMARK  320  A    between atoms: _790  and  _793
REMARK  321  A    between atoms: _793  and  _794
REMARK  322  A    between atoms: _797  and  _799
REMARK  323  A    between atoms: _799  and  _800
REMARK  324  A    between atoms: _799  and  _802
REMARK  325  A    between atoms: _802  and  _803
REMARK  326  A    between atoms: _806  and  _808
REMARK  327  A    between atoms: _808  and  _809
REMARK  328  A    between atoms: _811  and  _813
REMARK  329  A    between atoms: _813  and  _814
REMARK  330  A    between atoms: _813  and  _816
REMARK  331  A    between atoms: _816  and  _817
REMARK  332  A    between atoms: _820  and  _822
REMARK  333  A    between atoms: _822  and  _823
REMARK  334  A    between atoms: _822  and  _825
REMARK  335  A    between atoms: _825  and  _826
REMARK  336  A    between atoms: _826  and  _827
REMARK  337  A    between atoms: _827  and  _828
REMARK  338  A    between atoms: _828  and  _829
REMARK  339  A    between atoms: _834  and  _835
REMARK  340  A    between atoms: _840  and  _842
REMARK  341  A    between atoms: _842  and  _843
REMARK  342  A    between atoms: _842  and  _845
REMARK  343  A    between atoms: _848  and  _850
REMARK  344  A    between atoms: _850  and  _851
REMARK  345  A    between atoms: _854  and  _856
REMARK  346  A    between atoms: _856  and  _857
REMARK  347  A    between atoms: _856  and  _859
REMARK  348  A    between atoms: _859  and  _860
REMARK  349  A    between atoms: _860  and  _861
REMARK  350  A    between atoms: _864  and  _866
REMARK  351  A    between atoms: _866  and  _867
REMARK  352  A    between atoms: _866  and  _869
REMARK  353  A    between atoms: _872  and  _874
REMARK  354  A    between atoms: _874  and  _875
REMARK  355  A    between atoms: _874  and  _877
REMARK  356  A    between atoms: _877  and  _878
REMARK  357  A    between atoms: _878  and  _879
REMARK  358  A    between atoms: _879  and  _880
REMARK                            x       y       z     vdW  Elec       q    Type
REMARK                         _______ _______ _______ _____ _____    ______ ____
ROOT
ATOM      1  O   HOH     1     -19.496  17.221 -32.234  0.00  0.00    +0.000 OA
ENDROOT
TORSDOF 0
REMARK  Name = ../refined-set-2016/4x8o/4x8o_pocket.pdb
REMARK  358 active torsions:
REMARK  status: ('A' for Active; 'I' for Inactive)
REMARK    1  A    between atoms: _1  and  _3
REMARK    2  A    between atoms: _3  and  _4
REMARK    3  A    between atoms: _3  and  _6
REMARK    4  A    between atoms: _6  and  _7
REMARK    5  A    between atoms: _10  and  _12
REMARK    6  A    between atoms: _12  and  _13
REMARK    7  A    between atoms: _12  and  _15
REMARK    8  A    between atoms: _15  and  _16
REMARK    9  A    between atoms: _19  and  _21
REMARK   10  A    between atoms: _21  and  _22
REMARK   11  A    between atoms: _24  and  _26
REMARK   12  A    between atoms: _26  and  _27
REMARK   13  A    between atoms: _31  and  _32
REMARK   14  A    between atoms: _37  and  _39
REMARK   15  A    between atoms: _39  and  _40
REMARK   16  A    between atoms: _42  and  _44
REMARK   17  A    between atoms: _44  and  _45
REMARK   18  A    between atoms: _48  and  _50
REMARK   19  A    between atoms: _50  and  _51
REMARK   20  A    between atoms: _53  and  _55
REMARK   21  A    between atoms: _55  and  _56
REMARK   22  A    between atoms: _55  and  _58
REMARK   23  A    between atoms: _58  and  _59
REMARK   24  A    between atoms: _59  and  _60
REMARK   25  A    between atoms: _60  and  _61
REMARK   26  A    between atoms: _61  and  _62
REMARK   27  A    between atoms: _66  and  _68
REMARK   28  A    between atoms: _68  and  _69
REMARK   29  A    between atoms: _71  and  _73
REMARK   30  A    between atoms: _73  and  _74
REMARK   31  A    between atoms: _73  and  _76
REMARK   32  A    between atoms: _76  and  _77
REMARK   33  A    between atoms: _80  and  _82
REMARK   34  A    between atoms: _82  and  _83
REMARK   35  A    between atoms: _82  and  _85
REMARK   36  A    between atoms: _85  and  _86
REMARK   37  A    between atoms: _86  and  _87
REMARK   38  A    between atoms: _92  and  _94
REMARK   39  A    between atoms: _94  and  _95
REMARK   40  A    between atoms: _98  and  _100
REMARK   41  A    between atoms: _100  and  _101
REMARK   42  A    between atoms: _100  and  _103
REMARK   43  A    between atoms: _103  and  _104
REMARK   44  A    between atoms: _104  and  _105
REMARK   45  A    between atoms: _110  and  _112
REMARK   46  A    between atoms: _112  and  _113
REMARK   47  A    between atoms: _112  and  _115
REMARK   48  A    between atoms: _115  and  _116
REMARK   49  A    between atoms: _122  and  _124
REMARK   50  A    between atoms: _124  and  _125
REMARK   51  A    between atoms: _124  and  _127
REMARK   52  A    between atoms: _127  and  _128
REMARK   53  A    between atoms: _128  and  _129
REMARK   54  A    between atoms: _134  and  _136
REMARK   55  A    between atoms: _136  and  _137
REMARK   56  A    between atoms: _136  and  _139
REMARK   57  A    between atoms: _139  and  _140
REMARK   58  A    between atoms: _142  and  _144
REMARK   59  A    between atoms: _144  and  _145
REMARK   60  A    between atoms: _144  and  _147
REMARK   61  A    between atoms: _147  and  _148
REMARK   62  A    between atoms: _151  and  _153
REMARK   63  A    between atoms: _153  and  _154
REMARK   64  A    between atoms: _156  and  _158
REMARK   65  A    between atoms: _158  and  _159
REMARK   66  A    between atoms: _158  and  _161
REMARK   67  A    between atoms: _161  and  _162
REMARK   68  A    between atoms: _165  and  _167
REMARK   69  A    between atoms: _167  and  _168
REMARK   70  A    between atoms: _167  and  _170
REMARK   71  A    between atoms: _170  and  _171
REMARK   72  A    between atoms: _171  and  _172
REMARK   73  A    between atoms: _174  and  _176
REMARK   74  A    between atoms: _176  and  _177
REMARK   75  A    between atoms: _176  and  _179
REMARK   76  A    between atoms: _179  and  _180
REMARK   77  A    between atoms: _183  and  _185
REMARK   78  A    between atoms: _185  and  _186
REMARK   79  A    between atoms: _185  and  _188
REMARK   80  A    between atoms: _188  and  _189
REMARK   81  A    between atoms: _189  and  _190
REMARK   82  A    between atoms: _190  and  _191
REMARK   83  A    between atoms: _200  and  _202
REMARK   84  A    between atoms: _202  and  _203
REMARK   85  A    between atoms: _206  and  _208
REMARK   86  A    between atoms: _208  and  _209
REMARK   87  A    between atoms: _208  and  _211
REMARK   88  A    between atoms: _211  and  _212
REMARK   89  A    between atoms: _212  and  _213
REMARK   90  A    between atoms: _213  and  _214
REMARK   91  A    between atoms: _214  and  _215
REMARK   92  A    between atoms: _219  and  _221
REMARK   93  A    between atoms: _221  and  _222
REMARK   94  A    between atoms: _221  and  _224
REMARK   95  A    between atoms: _224  and  _225
REMARK   96  A    between atoms: _228  and  _230
REMARK   97  A    between atoms: _230  and  _231
REMARK   98  A    between atoms: _230  and  _233
REMARK   99  A    between atoms: _233  and  _234
REMARK  100  A    between atoms: _237  and  _239
REMARK  101  A    between atoms: _239  and  _240
REMARK  102  A    between atoms: _239  and  _242
REMARK  103  A    between atoms: _242  and  _243
REMARK  104  A    between atoms: _243  and  _244
REMARK  105  A    between atoms: _246  and  _248
REMARK  106  A    between atoms: _248  and  _249
REMARK  107  A    between atoms: _248  and  _251
REMARK  108  A    between atoms: _251  and  _252
REMARK  109  A    between atoms: _255  and  _257
REMARK  110  A    between atoms: _257  and  _258
REMARK  111  A    between atoms: _261  and  _263
REMARK  112  A    between atoms: _263  and  _264
REMARK  113  A    between atoms: _266  and  _268
REMARK  114  A    between atoms: _268  and  _269
REMARK  115  A    between atoms: _268  and  _271
REMARK  116  A    between atoms: _271  and  _272
REMARK  117  A    between atoms: _272  and  _273
REMARK  118  A    between atoms: _273  and  _274
REMARK  119  A    between atoms: _274  and  _275
REMARK  120  A    between atoms: _279  and  _281
REMARK  121  A    between atoms: _281  and  _282
REMARK  122  A    between atoms: _281  and  _284
REMARK  123  A    between atoms: _284  and  _285
REMARK  124  A    between atoms: _288  and  _290
REMARK  125  A    between atoms: _290  and  _291
REMARK  126  A    between atoms: _290  and  _293
REMARK  127  A    between atoms: _296  and  _298
REMARK  128  A    between atoms: _298  and  _299
REMARK  129  A    between atoms: _298  and  _301
REMARK  130  A    between atoms: _301  and  _302
REMARK  131  A    between atoms: _305  and  _307
REMARK  132  A    between atoms: _307  and  _308
REMARK  133  A    between atoms: _307  and  _310
REMARK  134  A    between atoms: _310  and  _311
REMARK  135  A    between atoms: _314  and  _316
REMARK  136  A    between atoms: _316  and  _317
REMARK  137  A    between atoms: _316  and  _319
REMARK  138  A    between atoms: _319  and  _320
REMARK  139  A    between atoms: _320  and  _321
REMARK  140  A    between atoms: _324  and  _326
REMARK  141  A    between atoms: _326  and  _327
REMARK  142  A    between atoms: _326  and  _329
REMARK  143  A    between atoms: _329  and  _330
REMARK  144  A    between atoms: _333  and  _335
REMARK  145  A    between atoms: _335  and  _336
REMARK  146  A    between atoms: _335  and  _338
REMARK  147  A    between atoms: _341  and  _343
REMARK  148  A    between atoms: _343  and  _344
REMARK  149  A    between atoms: _343  and  _346
REMARK  150  A    between atoms: _346  and  _347
REMARK  151  A    between atoms: _350  and  _352
REMARK  152  A    between atoms: _352  and  _353
REMARK  153  A    between atoms: _352  and  _355
REMARK  154  A    between atoms: _358  and  _360
REMARK  155  A    between atoms: _360  and  _361
REMARK  156  A    between atoms: _360  and  _363
REMARK  157  A    between atoms: _363  and  _364
REMARK  158  A    between atoms: _367  and  _369
REMARK  159  A    between atoms: _369  and  _370
REMARK  160  A    between atoms: _372  and  _374
REMARK  161  A    between atoms: _374  and  _375
REMARK  162  A    between atoms: _374  and  _377
REMARK  163  A    between atoms: _377  and  _378
REMARK  164  A    between atoms: _385  and  _386
REMARK  165  A    between atoms: _391  and  _393
REMARK  166  A    between atoms: _393  and  _394
REMARK  167  A    between atoms: _393  and  _396
REMARK  168  A    between atoms: _396  and  _397
REMARK  169  A    between atoms: _397  and  _398
REMARK  170  A    between atoms: _398  and  _399
REMARK  171  A    between atoms: _408  and  _410
REMARK  172  A    between atoms: _410  and  _411
REMARK  173  A    between atoms: _410  and  _413
REMARK  174  A    between atoms: _413  and  _414
REMARK  175  A    between atoms: _417  and  _419
REMARK  176  A    between atoms: _419  and  _420
REMARK  177  A    between atoms: _419  and  _422
REMARK  178  A    between atoms: _422  and  _423
REMARK  179  A    between atoms: _423  and  _424
REMARK  180  A    between atoms: _429  and  _431
REMARK  181  A    between atoms: _431  and  _432
REMARK  182  A    between atoms: _431  and  _434
REMARK  183  A    between atoms: _434  and  _435
REMARK  184  A    between atoms: _441  and  _443
REMARK  185  A    between atoms: _443  and  _444
REMARK  186  A    between atoms: _443  and  _446
REMARK  187  A    between atoms: _449  and  _451
REMARK  188  A    between atoms: _451  and  _452
REMARK  189  A    between atoms: _451  and  _454
REMARK  190  A    between atoms: _454  and  _455
REMARK  191  A    between atoms: _458  and  _460
REMARK  192  A    between atoms: _460  and  _461
REMARK  193  A    between atoms: _460  and  _463
REMARK  194  A    between atoms: _463  and  _464
REMARK  195  A    between atoms: _467  and  _469
REMARK  196  A    between atoms: _469  and  _470
REMARK  197  A    between atoms: _469  and  _472
REMARK  198  A    between atoms: _475  and  _477
REMARK  199  A    between atoms: _477  and  _478
REMARK  200  A    between atoms: _477  and  _480
REMARK  201  A    between atoms: _480  and  _481
REMARK  202  A    between atoms: _484  and  _486
REMARK  203  A    between atoms: _486  and  _487
REMARK  204  A    between atoms: _486  and  _489
REMARK  205  A    between atoms: _489  and  _490
REMARK  206  A    between atoms: _490  and  _491
REMARK  207  A    between atoms: _491  and  _492
REMARK  208  A    between atoms: _501  and  _503
REMARK  209  A    between atoms: _503  and  _504
REMARK  210  A    between atoms: _503  and  _506
REMARK  211  A    between atoms: _506  and  _507
REMARK  212  A    between atoms: _510  and  _512
REMARK  213  A    between atoms: _512  and  _513
REMARK  214  A    between atoms: _512  and  _515
REMARK  215  A    between atoms: _518  and  _520
REMARK  216  A    between atoms: _520  and  _521
REMARK  217  A    between atoms: _523  and  _525
REMARK  218  A    between atoms: _525  and  _526
REMARK  219  A    between atoms: _525  and  _528
REMARK  220  A    between atoms: _528  and  _529
REMARK  221  A    between atoms: _529  and  _530
REMARK  222  A    between atoms: _530  and  _531
REMARK  223  A    between atoms: _540  and  _542
REMARK  224  A    between atoms: _542  and  _543
REMARK  225  A    between atoms: _542  and  _545
REMARK  226  A    between atoms: _545  and  _546
REMARK  227  A    between atoms: _546  and  _547
REMARK  228  A    between atoms: _547  and  _548
REMARK  229  A    between atoms: _557  and  _559
REMARK  230  A    between atoms: _559  and  _560
REMARK  231  A    between atoms: _559  and  _562
REMARK  232  A    between atoms: _565  and  _567
REMARK  233  A    between atoms: _567  and  _568
REMARK  234  A    between atoms: _570  and  _572
REMARK  235  A    between atoms: _572  and  _573
REMARK  236  A    between atoms: _572  and  _575
REMARK  237  A    between atoms: _575  and  _576
REMARK  238  A    between atoms: _576  and  _577
REMARK  239  A    between atoms: _577  and  _578
REMARK  240  A    between atoms: _587  and  _589
REMARK  241  A    between atoms: _589  and  _590
REMARK  242  A    between atoms: _589  and  _592
REMARK  243  A    between atoms: _595  and  _597
REMARK  244  A    between atoms: _597  and  _598
REMARK  245  A    between atoms: _597  and  _600
REMARK  246  A    between atoms: _600  and  _601
REMARK  247  A    between atoms: _606  and  _607
REMARK  248  A    between atoms: _609  and  _611
REMARK  249  A    between atoms: _611  and  _612
REMARK  250  A    between atoms: _611  and  _614
REMARK  251  A    between atoms: _614  and  _615
REMARK  252  A    between atoms: _620  and  _622
REMARK  253  A    between atoms: _622  and  _623
REMARK  254  A    between atoms: _622  and  _625
REMARK  255  A    between atoms: _628  and  _630
REMARK  256  A    between atoms: _630  and  _631
REMARK  257  A    between atoms: _630  and  _633
REMARK  258  A    between atoms: _633  and  _634
REMARK  259  A    between atoms: _634  and  _635
REMARK  260  A    between atoms: _635  and  _636
REMARK  261  A    between atoms: _636  and  _637
REMARK  262  A    between atoms: _641  and  _643
REMARK  263  A    between atoms: _643  and  _644
REMARK  264  A    between atoms: _643  and  _646
REMARK  265  A    between atoms: _646  and  _647
REMARK  266  A    between atoms: _653  and  _655
REMARK  267  A    between atoms: _655  and  _656
REMARK  268  A    between atoms: _655  and  _658
REMARK  269  A    between atoms: _658  and  _659
REMARK  270  A    between atoms: _665  and  _666
REMARK  271  A    between atoms: _671  and  _673
REMARK  272  A    between atoms: _673  and  _674
REMARK  273  A    between atoms: _673  and  _676
REMARK  274  A    between atoms: _676  and  _677
REMARK  275  A    between atoms: _677  and  _678
REMARK  276  A    between atoms: _678  and  _679
REMARK  277  A    between atoms: _688  and  _690
REMARK  278  A    between atoms: _690  and  _691
REMARK  279  A    between atoms: _690  and  _693
REMARK  280  A    between atoms: _693  and  _694
REMARK  281  A    between atoms: _697  and  _699
REMARK  282  A    between atoms: _699  and  _700
REMARK  283  A    between atoms: _699  and  _702
REMARK  284  A    between atoms: _702  and  _703
REMARK  285  A    between atoms: _706  and  _708
REMARK  286  A    between atoms: _708  and  _709
REMARK  287  A    between atoms: _708  and  _711
REMARK  288  A    between atoms: _711  and  _712
REMARK  289  A    between atoms: _715  and  _717
REMARK  290  A    between atoms: _717  and  _718
REMARK  291  A    between atoms: _717  and  _720
REMARK  292  A    between atoms: _723  and  _725
REMARK  293  A    between atoms: _725  and  _726
REMARK  294  A    between atoms: _725  and  _728
REMARK  295  A    between atoms: _728  and  _729
REMARK  296  A    between atoms: _729  and  _730
REMARK  297  A    between atoms: _730  and  _731
REMARK  298  A    between atoms: _731  and  _732
REMARK  299  A    between atoms: _736  and  _738
REMARK  300  A    between atoms: _738  and  _739
REMARK  301  A    between atoms: _738  and  _741
REMARK  302  A    between atoms: _741  and  _742
REMARK  303  A    between atoms: _742  and  _743
REMARK  304  A    between atoms: _743  and  _744
REMARK  305  A    between atoms: _753  and  _755
REMARK  306  A    between atoms: _755  and  _756
REMARK  307  A    between atoms: _755  and  _758
REMARK  308  A    between atoms: _758  and  _759
REMARK  309  A    between atoms: _762  and  _764
REMARK  310  A    between atoms: _764  and  _765
REMARK  311  A    between atoms: _764  and  _767
REMARK  312  A    between atoms: _767  and  _768
REMARK  313  A    between atoms: _768  and  _769
REMARK  314  A    between atoms: _772  and  _774
REMARK  315  A    between atoms: _774  and  _775
REMARK  316  A    between atoms: _774  and  _777
REMARK  317  A    between atoms: _777  and  _778
REMARK  318  A    between atoms: _788  and  _790
REMARK  319  A    between atoms: _790  and  _791
REMARK  320  A    between atoms: _790  and  _793
REMARK  321  A    between atoms: _793  and  _794
REMARK  322  A    between atoms: _797  and  _799
REMARK  323  A    between atoms: _799  and  _800
REMARK  324  A    between atoms: _799  and  _802
REMARK  325  A    between atoms: _802  and  _803
REMARK  326  A    between atoms: _806  and  _808
REMARK  327  A    between atoms: _808  and  _809
REMARK  328  A    between atoms: _811  and  _813
REMARK  329  A    between atoms: _813  and  _814
REMARK  330  A    between atoms: _813  and  _816
REMARK  331  A    between atoms: _816  and  _817
REMARK  332  A    between atoms: _820  and  _822
REMARK  333  A    between atoms: _822  and  _823
REMARK  334  A    between atoms: _822  and  _825
REMARK  335  A    between atoms: _825  and  _826
REMARK  336  A    between atoms: _826  and  _827
REMARK  337  A    between atoms: _827  and  _828
REMARK  338  A    between atoms: _828  and  _829
REMARK  339  A    between atoms: _834  and  _835
REMARK  340  A    between atoms: _840  and  _842
REMARK  341  A    between atoms: _842  and  _843
REMARK  342  A    between atoms: _842  and  _845
REMARK  343  A    between atoms: _848  and  _850
REMARK  344  A    between atoms: _850  and  _851
REMARK  345  A    between atoms: _854  and  _856
REMARK  346  A    between atoms: _856  and  _857
REMARK  347  A    between atoms: _856  and  _859
REMARK  348  A    between atoms: _859  and  _860
REMARK  349  A    between atoms: _860  and  _861
REMARK  350  A    between atoms: _864  and  _866
REMARK  351  A    between atoms: _866  and  _867
REMARK  352  A    between atoms: _866  and  _869
REMARK  353  A    between atoms: _872  and  _874
REMARK  354  A    between atoms: _874  and  _875
REMARK  355  A    between atoms: _874  and  _877
REMARK  356  A    between atoms: _877  and  _878
REMARK  357  A    between atoms: _878  and  _879
REMARK  358  A    between atoms: _879  and  _880
REMARK                            x       y       z     vdW  Elec       q    Type
REMARK                         _______ _______ _______ _____ _____    ______ ____
ROOT
ATOM      1  O   HOH     1     -20.236  21.733 -43.561  0.00  0.00    +0.000 OA
ENDROOT
TORSDOF 0
REMARK  Name = ../refined-set-2016/4x8o/4x8o_pocket.pdb
REMARK  358 active torsions:
REMARK  status: ('A' for Active; 'I' for Inactive)
REMARK    1  A    between atoms: _1  and  _3
REMARK    2  A    between atoms: _3  and  _4
REMARK    3  A    between atoms: _3  and  _6
REMARK    4  A    between atoms: _6  and  _7
REMARK    5  A    between atoms: _10  and  _12
REMARK    6  A    between atoms: _12  and  _13
REMARK    7  A    between atoms: _12  and  _15
REMARK    8  A    between atoms: _15  and  _16
REMARK    9  A    between atoms: _19  and  _21
REMARK   10  A    between atoms: _21  and  _22
REMARK   11  A    between atoms: _24  and  _26
REMARK   12  A    between atoms: _26  and  _27
REMARK   13  A    between atoms: _31  and  _32
REMARK   14  A    between atoms: _37  and  _39
REMARK   15  A    between atoms: _39  and  _40
REMARK   16  A    between atoms: _42  and  _44
REMARK   17  A    between atoms: _44  and  _45
REMARK   18  A    between atoms: _48  and  _50
REMARK   19  A    between atoms: _50  and  _51
REMARK   20  A    between atoms: _53  and  _55
REMARK   21  A    between atoms: _55  and  _56
REMARK   22  A    between atoms: _55  and  _58
REMARK   23  A    between atoms: _58  and  _59
REMARK   24  A    between atoms: _59  and  _60
REMARK   25  A    between atoms: _60  and  _61
REMARK   26  A    between atoms: _61  and  _62
REMARK   27  A    between atoms: _66  and  _68
REMARK   28  A    between atoms: _68  and  _69
REMARK   29  A    between atoms: _71  and  _73
REMARK   30  A    between atoms: _73  and  _74
REMARK   31  A    between atoms: _73  and  _76
REMARK   32  A    between atoms: _76  and  _77
REMARK   33  A    between atoms: _80  and  _82
REMARK   34  A    between atoms: _82  and  _83
REMARK   35  A    between atoms: _82  and  _85
REMARK   36  A    between atoms: _85  and  _86
REMARK   37  A    between atoms: _86  and  _87
REMARK   38  A    between atoms: _92  and  _94
REMARK   39  A    between atoms: _94  and  _95
REMARK   40  A    between atoms: _98  and  _100
REMARK   41  A    between atoms: _100  and  _101
REMARK   42  A    between atoms: _100  and  _103
REMARK   43  A    between atoms: _103  and  _104
REMARK   44  A    between atoms: _104  and  _105
REMARK   45  A    between atoms: _110  and  _112
REMARK   46  A    between atoms: _112  and  _113
REMARK   47  A    between atoms: _112  and  _115
REMARK   48  A    between atoms: _115  and  _116
REMARK   49  A    between atoms: _122  and  _124
REMARK   50  A    between atoms: _124  and  _125
REMARK   51  A    between atoms: _124  and  _127
REMARK   52  A    between atoms: _127  and  _128
REMARK   53  A    between atoms: _128  and  _129
REMARK   54  A    between atoms: _134  and  _136
REMARK   55  A    between atoms: _136  and  _137
REMARK   56  A    between atoms: _136  and  _139
REMARK   57  A    between atoms: _139  and  _140
REMARK   58  A    between atoms: _142  and  _144
REMARK   59  A    between atoms: _144  and  _145
REMARK   60  A    between atoms: _144  and  _147
REMARK   61  A    between atoms: _147  and  _148
REMARK   62  A    between atoms: _151  and  _153
REMARK   63  A    between atoms: _153  and  _154
REMARK   64  A    between atoms: _156  and  _158
REMARK   65  A    between atoms: _158  and  _159
REMARK   66  A    between atoms: _158  and  _161
REMARK   67  A    between atoms: _161  and  _162
REMARK   68  A    between atoms: _165  and  _167
REMARK   69  A    between atoms: _167  and  _168
REMARK   70  A    between atoms: _167  and  _170
REMARK   71  A    between atoms: _170  and  _171
REMARK   72  A    between atoms: _171  and  _172
REMARK   73  A    between atoms: _174  and  _176
REMARK   74  A    between atoms: _176  and  _177
REMARK   75  A    between atoms: _176  and  _179
REMARK   76  A    between atoms: _179  and  _180
REMARK   77  A    between atoms: _183  and  _185
REMARK   78  A    between atoms: _185  and  _186
REMARK   79  A    between atoms: _185  and  _188
REMARK   80  A    between atoms: _188  and  _189
REMARK   81  A    between atoms: _189  and  _190
REMARK   82  A    between atoms: _190  and  _191
REMARK   83  A    between atoms: _200  and  _202
REMARK   84  A    between atoms: _202  and  _203
REMARK   85  A    between atoms: _206  and  _208
REMARK   86  A    between atoms: _208  and  _209
REMARK   87  A    between atoms: _208  and  _211
REMARK   88  A    between atoms: _211  and  _212
REMARK   89  A    between atoms: _212  and  _213
REMARK   90  A    between atoms: _213  and  _214
REMARK   91  A    between atoms: _214  and  _215
REMARK   92  A    between atoms: _219  and  _221
REMARK   93  A    between atoms: _221  and  _222
REMARK   94  A    between atoms: _221  and  _224
REMARK   95  A    between atoms: _224  and  _225
REMARK   96  A    between atoms: _228  and  _230
REMARK   97  A    between atoms: _230  and  _231
REMARK   98  A    between atoms: _230  and  _233
REMARK   99  A    between atoms: _233  and  _234
REMARK  100  A    between atoms: _237  and  _239
REMARK  101  A    between atoms: _239  and  _240
REMARK  102  A    between atoms: _239  and  _242
REMARK  103  A    between atoms: _242  and  _243
REMARK  104  A    between atoms: _243  and  _244
REMARK  105  A    between atoms: _246  and  _248
REMARK  106  A    between atoms: _248  and  _249
REMARK  107  A    between atoms: _248  and  _251
REMARK  108  A    between atoms: _251  and  _252
REMARK  109  A    between atoms: _255  and  _257
REMARK  110  A    between atoms: _257  and  _258
REMARK  111  A    between atoms: _261  and  _263
REMARK  112  A    between atoms: _263  and  _264
REMARK  113  A    between atoms: _266  and  _268
REMARK  114  A    between atoms: _268  and  _269
REMARK  115  A    between atoms: _268  and  _271
REMARK  116  A    between atoms: _271  and  _272
REMARK  117  A    between atoms: _272  and  _273
REMARK  118  A    between atoms: _273  and  _274
REMARK  119  A    between atoms: _274  and  _275
REMARK  120  A    between atoms: _279  and  _281
REMARK  121  A    between atoms: _281  and  _282
REMARK  122  A    between atoms: _281  and  _284
REMARK  123  A    between atoms: _284  and  _285
REMARK  124  A    between atoms: _288  and  _290
REMARK  125  A    between atoms: _290  and  _291
REMARK  126  A    between atoms: _290  and  _293
REMARK  127  A    between atoms: _296  and  _298
REMARK  128  A    between atoms: _298  and  _299
REMARK  129  A    between atoms: _298  and  _301
REMARK  130  A    between atoms: _301  and  _302
REMARK  131  A    between atoms: _305  and  _307
REMARK  132  A    between atoms: _307  and  _308
REMARK  133  A    between atoms: _307  and  _310
REMARK  134  A    between atoms: _310  and  _311
REMARK  135  A    between atoms: _314  and  _316
REMARK  136  A    between atoms: _316  and  _317
REMARK  137  A    between atoms: _316  and  _319
REMARK  138  A    between atoms: _319  and  _320
REMARK  139  A    between atoms: _320  and  _321
REMARK  140  A    between atoms: _324  and  _326
REMARK  141  A    between atoms: _326  and  _327
REMARK  142  A    between atoms: _326  and  _329
REMARK  143  A    between atoms: _329  and  _330
REMARK  144  A    between atoms: _333  and  _335
REMARK  145  A    between atoms: _335  and  _336
REMARK  146  A    between atoms: _335  and  _338
REMARK  147  A    between atoms: _341  and  _343
REMARK  148  A    between atoms: _343  and  _344
REMARK  149  A    between atoms: _343  and  _346
REMARK  150  A    between atoms: _346  and  _347
REMARK  151  A    between atoms: _350  and  _352
REMARK  152  A    between atoms: _352  and  _353
REMARK  153  A    between atoms: _352  and  _355
REMARK  154  A    between atoms: _358  and  _360
REMARK  155  A    between atoms: _360  and  _361
REMARK  156  A    between atoms: _360  and  _363
REMARK  157  A    between atoms: _363  and  _364
REMARK  158  A    between atoms: _367  and  _369
REMARK  159  A    between atoms: _369  and  _370
REMARK  160  A    between atoms: _372  and  _374
REMARK  161  A    between atoms: _374  and  _375
REMARK  162  A    between atoms: _374  and  _377
REMARK  163  A    between atoms: _377  and  _378
REMARK  164  A    between atoms: _385  and  _386
REMARK  165  A    between atoms: _391  and  _393
REMARK  166  A    between atoms: _393  and  _394
REMARK  167  A    between atoms: _393  and  _396
REMARK  168  A    between atoms: _396  and  _397
REMARK  169  A    between atoms: _397  and  _398
REMARK  170  A    between atoms: _398  and  _399
REMARK  171  A    between atoms: _408  and  _410
REMARK  172  A    between atoms: _410  and  _411
REMARK  173  A    between atoms: _410  and  _413
REMARK  174  A    between atoms: _413  and  _414
REMARK  175  A    between atoms: _417  and  _419
REMARK  176  A    between atoms: _419  and  _420
REMARK  177  A    between atoms: _419  and  _422
REMARK  178  A    between atoms: _422  and  _423
REMARK  179  A    between atoms: _423  and  _424
REMARK  180  A    between atoms: _429  and  _431
REMARK  181  A    between atoms: _431  and  _432
REMARK  182  A    between atoms: _431  and  _434
REMARK  183  A    between atoms: _434  and  _435
REMARK  184  A    between atoms: _441  and  _443
REMARK  185  A    between atoms: _443  and  _444
REMARK  186  A    between atoms: _443  and  _446
REMARK  187  A    between atoms: _449  and  _451
REMARK  188  A    between atoms: _451  and  _452
REMARK  189  A    between atoms: _451  and  _454
REMARK  190  A    between atoms: _454  and  _455
REMARK  191  A    between atoms: _458  and  _460
REMARK  192  A    between atoms: _460  and  _461
REMARK  193  A    between atoms: _460  and  _463
REMARK  194  A    between atoms: _463  and  _464
REMARK  195  A    between atoms: _467  and  _469
REMARK  196  A    between atoms: _469  and  _470
REMARK  197  A    between atoms: _469  and  _472
REMARK  198  A    between atoms: _475  and  _477
REMARK  199  A    between atoms: _477  and  _478
REMARK  200  A    between atoms: _477  and  _480
REMARK  201  A    between atoms: _480  and  _481
REMARK  202  A    between atoms: _484  and  _486
REMARK  203  A    between atoms: _486  and  _487
REMARK  204  A    between atoms: _486  and  _489
REMARK  205  A    between atoms: _489  and  _490
REMARK  206  A    between atoms: _490  and  _491
REMARK  207  A    between atoms: _491  and  _492
REMARK  208  A    between atoms: _501  and  _503
REMARK  209  A    between atoms: _503  and  _504
REMARK  210  A    between atoms: _503  and  _506
REMARK  211  A    between atoms: _506  and  _507
REMARK  212  A    between atoms: _510  and  _512
REMARK  213  A    between atoms: _512  and  _513
REMARK  214  A    between atoms: _512  and  _515
REMARK  215  A    between atoms: _518  and  _520
REMARK  216  A    between atoms: _520  and  _521
REMARK  217  A    between atoms: _523  and  _525
REMARK  218  A    between atoms: _525  and  _526
REMARK  219  A    between atoms: _525  and  _528
REMARK  220  A    between atoms: _528  and  _529
REMARK  221  A    between atoms: _529  and  _530
REMARK  222  A    between atoms: _530  and  _531
REMARK  223  A    between atoms: _540  and  _542
REMARK  224  A    between atoms: _542  and  _543
REMARK  225  A    between atoms: _542  and  _545
REMARK  226  A    between atoms: _545  and  _546
REMARK  227  A    between atoms: _546  and  _547
REMARK  228  A    between atoms: _547  and  _548
REMARK  229  A    between atoms: _557  and  _559
REMARK  230  A    between atoms: _559  and  _560
REMARK  231  A    between atoms: _559  and  _562
REMARK  232  A    between atoms: _565  and  _567
REMARK  233  A    between atoms: _567  and  _568
REMARK  234  A    between atoms: _570  and  _572
REMARK  235  A    between atoms: _572  and  _573
REMARK  236  A    between atoms: _572  and  _575
REMARK  237  A    between atoms: _575  and  _576
REMARK  238  A    between atoms: _576  and  _577
REMARK  239  A    between atoms: _577  and  _578
REMARK  240  A    between atoms: _587  and  _589
REMARK  241  A    between atoms: _589  and  _590
REMARK  242  A    between atoms: _589  and  _592
REMARK  243  A    between atoms: _595  and  _597
REMARK  244  A    between atoms: _597  and  _598
REMARK  245  A    between atoms: _597  and  _600
REMARK  246  A    between atoms: _600  and  _601
REMARK  247  A    between atoms: _606  and  _607
REMARK  248  A    between atoms: _609  and  _611
REMARK  249  A    between atoms: _611  and  _612
REMARK  250  A    between atoms: _611  and  _614
REMARK  251  A    between atoms: _614  and  _615
REMARK  252  A    between atoms: _620  and  _622
REMARK  253  A    between atoms: _622  and  _623
REMARK  254  A    between atoms: _622  and  _625
REMARK  255  A    between atoms: _628  and  _630
REMARK  256  A    between atoms: _630  and  _631
REMARK  257  A    between atoms: _630  and  _633
REMARK  258  A    between atoms: _633  and  _634
REMARK  259  A    between atoms: _634  and  _635
REMARK  260  A    between atoms: _635  and  _636
REMARK  261  A    between atoms: _636  and  _637
REMARK  262  A    between atoms: _641  and  _643
REMARK  263  A    between atoms: _643  and  _644
REMARK  264  A    between atoms: _643  and  _646
REMARK  265  A    between atoms: _646  and  _647
REMARK  266  A    between atoms: _653  and  _655
REMARK  267  A    between atoms: _655  and  _656
REMARK  268  A    between atoms: _655  and  _658
REMARK  269  A    between atoms: _658  and  _659
REMARK  270  A    between atoms: _665  and  _666
REMARK  271  A    between atoms: _671  and  _673
REMARK  272  A    between atoms: _673  and  _674
REMARK  273  A    between atoms: _673  and  _676
REMARK  274  A    between atoms: _676  and  _677
REMARK  275  A    between atoms: _677  and  _678
REMARK  276  A    between atoms: _678  and  _679
REMARK  277  A    between atoms: _688  and  _690
REMARK  278  A    between atoms: _690  and  _691
REMARK  279  A    between atoms: _690  and  _693
REMARK  280  A    between atoms: _693  and  _694
REMARK  281  A    between atoms: _697  and  _699
REMARK  282  A    between atoms: _699  and  _700
REMARK  283  A    between atoms: _699  and  _702
REMARK  284  A    between atoms: _702  and  _703
REMARK  285  A    between atoms: _706  and  _708
REMARK  286  A    between atoms: _708  and  _709
REMARK  287  A    between atoms: _708  and  _711
REMARK  288  A    between atoms: _711  and  _712
REMARK  289  A    between atoms: _715  and  _717
REMARK  290  A    between atoms: _717  and  _718
REMARK  291  A    between atoms: _717  and  _720
REMARK  292  A    between atoms: _723  and  _725
REMARK  293  A    between atoms: _725  and  _726
REMARK  294  A    between atoms: _725  and  _728
REMARK  295  A    between atoms: _728  and  _729
REMARK  296  A    between atoms: _729  and  _730
REMARK  297  A    between atoms: _730  and  _731
REMARK  298  A    between atoms: _731  and  _732
REMARK  299  A    between atoms: _736  and  _738
REMARK  300  A    between atoms: _738  and  _739
REMARK  301  A    between atoms: _738  and  _741
REMARK  302  A    between atoms: _741  and  _742
REMARK  303  A    between atoms: _742  and  _743
REMARK  304  A    between atoms: _743  and  _744
REMARK  305  A    between atoms: _753  and  _755
REMARK  306  A    between atoms: _755  and  _756
REMARK  307  A    between atoms: _755  and  _758
REMARK  308  A    between atoms: _758  and  _759
REMARK  309  A    between atoms: _762  and  _764
REMARK  310  A    between atoms: _764  and  _765
REMARK  311  A    between atoms: _764  and  _767
REMARK  312  A    between atoms: _767  and  _768
REMARK  313  A    between atoms: _768  and  _769
REMARK  314  A    between atoms: _772  and  _774
REMARK  315  A    between atoms: _774  and  _775
REMARK  316  A    between atoms: _774  and  _777
REMARK  317  A    between atoms: _777  and  _778
REMARK  318  A    between atoms: _788  and  _790
REMARK  319  A    between atoms: _790  and  _791
REMARK  320  A    between atoms: _790  and  _793
REMARK  321  A    between atoms: _793  and  _794
REMARK  322  A    between atoms: _797  and  _799
REMARK  323  A    between atoms: _799  and  _800
REMARK  324  A    between atoms: _799  and  _802
REMARK  325  A    between atoms: _802  and  _803
REMARK  326  A    between atoms: _806  and  _808
REMARK  327  A    between atoms: _808  and  _809
REMARK  328  A    between atoms: _811  and  _813
REMARK  329  A    between atoms: _813  and  _814
REMARK  330  A    between atoms: _813  and  _816
REMARK  331  A    between atoms: _816  and  _817
REMARK  332  A    between atoms: _820  and  _822
REMARK  333  A    between atoms: _822  and  _823
REMARK  334  A    between atoms: _822  and  _825
REMARK  335  A    between atoms: _825  and  _826
REMARK  336  A    between atoms: _826  and  _827
REMARK  337  A    between atoms: _827  and  _828
REMARK  338  A    between atoms: _828  and  _829
REMARK  339  A    between atoms: _834  and  _835
REMARK  340  A    between atoms: _840  and  _842
REMARK  341  A    between atoms: _842  and  _843
REMARK  342  A    between atoms: _842  and  _845
REMARK  343  A    between atoms: _848  and  _850
REMARK  344  A    between atoms: _850  and  _851
REMARK  345  A    between atoms: _854  and  _856
REMARK  346  A    between atoms: _856  and  _857
REMARK  347  A    between atoms: _856  and  _859
REMARK  348  A    between atoms: _859  and  _860
REMARK  349  A    between atoms: _860  and  _861
REMARK  350  A    between atoms: _864  and  _866
REMARK  351  A    between atoms: _866  and  _867
REMARK  352  A    between atoms: _866  and  _869
REMARK  353  A    between atoms: _872  and  _874
REMARK  354  A    between atoms: _874  and  _875
REMARK  355  A    between atoms: _874  and  _877
REMARK  356  A    between atoms: _877  and  _878
REMARK  357  A    between atoms: _878  and  _879
REMARK  358  A    between atoms: _879  and  _880
REMARK                            x       y       z     vdW  Elec       q    Type
REMARK                         _______ _______ _______ _____ _____    ______ ____
ROOT
ATOM      1  O   HOH     1     -19.255  19.074 -39.961  0.00  0.00    +0.000 OA
ENDROOT
TORSDOF 0
REMARK  Name = ../refined-set-2016/4x8o/4x8o_pocket.pdb
REMARK  358 active torsions:
REMARK  status: ('A' for Active; 'I' for Inactive)
REMARK    1  A    between atoms: _1  and  _3
REMARK    2  A    between atoms: _3  and  _4
REMARK    3  A    between atoms: _3  and  _6
REMARK    4  A    between atoms: _6  and  _7
REMARK    5  A    between atoms: _10  and  _12
REMARK    6  A    between atoms: _12  and  _13
REMARK    7  A    between atoms: _12  and  _15
REMARK    8  A    between atoms: _15  and  _16
REMARK    9  A    between atoms: _19  and  _21
REMARK   10  A    between atoms: _21  and  _22
REMARK   11  A    between atoms: _24  and  _26
REMARK   12  A    between atoms: _26  and  _27
REMARK   13  A    between atoms: _31  and  _32
REMARK   14  A    between atoms: _37  and  _39
REMARK   15  A    between atoms: _39  and  _40
REMARK   16  A    between atoms: _42  and  _44
REMARK   17  A    between atoms: _44  and  _45
REMARK   18  A    between atoms: _48  and  _50
REMARK   19  A    between atoms: _50  and  _51
REMARK   20  A    between atoms: _53  and  _55
REMARK   21  A    between atoms: _55  and  _56
REMARK   22  A    between atoms: _55  and  _58
REMARK   23  A    between atoms: _58  and  _59
REMARK   24  A    between atoms: _59  and  _60
REMARK   25  A    between atoms: _60  and  _61
REMARK   26  A    between atoms: _61  and  _62
REMARK   27  A    between atoms: _66  and  _68
REMARK   28  A    between atoms: _68  and  _69
REMARK   29  A    between atoms: _71  and  _73
REMARK   30  A    between atoms: _73  and  _74
REMARK   31  A    between atoms: _73  and  _76
REMARK   32  A    between atoms: _76  and  _77
REMARK   33  A    between atoms: _80  and  _82
REMARK   34  A    between atoms: _82  and  _83
REMARK   35  A    between atoms: _82  and  _85
REMARK   36  A    between atoms: _85  and  _86
REMARK   37  A    between atoms: _86  and  _87
REMARK   38  A    between atoms: _92  and  _94
REMARK   39  A    between atoms: _94  and  _95
REMARK   40  A    between atoms: _98  and  _100
REMARK   41  A    between atoms: _100  and  _101
REMARK   42  A    between atoms: _100  and  _103
REMARK   43  A    between atoms: _103  and  _104
REMARK   44  A    between atoms: _104  and  _105
REMARK   45  A    between atoms: _110  and  _112
REMARK   46  A    between atoms: _112  and  _113
REMARK   47  A    between atoms: _112  and  _115
REMARK   48  A    between atoms: _115  and  _116
REMARK   49  A    between atoms: _122  and  _124
REMARK   50  A    between atoms: _124  and  _125
REMARK   51  A    between atoms: _124  and  _127
REMARK   52  A    between atoms: _127  and  _128
REMARK   53  A    between atoms: _128  and  _129
REMARK   54  A    between atoms: _134  and  _136
REMARK   55  A    between atoms: _136  and  _137
REMARK   56  A    between atoms: _136  and  _139
REMARK   57  A    between atoms: _139  and  _140
REMARK   58  A    between atoms: _142  and  _144
REMARK   59  A    between atoms: _144  and  _145
REMARK   60  A    between atoms: _144  and  _147
REMARK   61  A    between atoms: _147  and  _148
REMARK   62  A    between atoms: _151  and  _153
REMARK   63  A    between atoms: _153  and  _154
REMARK   64  A    between atoms: _156  and  _158
REMARK   65  A    between atoms: _158  and  _159
REMARK   66  A    between atoms: _158  and  _161
REMARK   67  A    between atoms: _161  and  _162
REMARK   68  A    between atoms: _165  and  _167
REMARK   69  A    between atoms: _167  and  _168
REMARK   70  A    between atoms: _167  and  _170
REMARK   71  A    between atoms: _170  and  _171
REMARK   72  A    between atoms: _171  and  _172
REMARK   73  A    between atoms: _174  and  _176
REMARK   74  A    between atoms: _176  and  _177
REMARK   75  A    between atoms: _176  and  _179
REMARK   76  A    between atoms: _179  and  _180
REMARK   77  A    between atoms: _183  and  _185
REMARK   78  A    between atoms: _185  and  _186
REMARK   79  A    between atoms: _185  and  _188
REMARK   80  A    between atoms: _188  and  _189
REMARK   81  A    between atoms: _189  and  _190
REMARK   82  A    between atoms: _190  and  _191
REMARK   83  A    between atoms: _200  and  _202
REMARK   84  A    between atoms: _202  and  _203
REMARK   85  A    between atoms: _206  and  _208
REMARK   86  A    between atoms: _208  and  _209
REMARK   87  A    between atoms: _208  and  _211
REMARK   88  A    between atoms: _211  and  _212
REMARK   89  A    between atoms: _212  and  _213
REMARK   90  A    between atoms: _213  and  _214
REMARK   91  A    between atoms: _214  and  _215
REMARK   92  A    between atoms: _219  and  _221
REMARK   93  A    between atoms: _221  and  _222
REMARK   94  A    between atoms: _221  and  _224
REMARK   95  A    between atoms: _224  and  _225
REMARK   96  A    between atoms: _228  and  _230
REMARK   97  A    between atoms: _230  and  _231
REMARK   98  A    between atoms: _230  and  _233
REMARK   99  A    between atoms: _233  and  _234
REMARK  100  A    between atoms: _237  and  _239
REMARK  101  A    between atoms: _239  and  _240
REMARK  102  A    between atoms: _239  and  _242
REMARK  103  A    between atoms: _242  and  _243
REMARK  104  A    between atoms: _243  and  _244
REMARK  105  A    between atoms: _246  and  _248
REMARK  106  A    between atoms: _248  and  _249
REMARK  107  A    between atoms: _248  and  _251
REMARK  108  A    between atoms: _251  and  _252
REMARK  109  A    between atoms: _255  and  _257
REMARK  110  A    between atoms: _257  and  _258
REMARK  111  A    between atoms: _261  and  _263
REMARK  112  A    between atoms: _263  and  _264
REMARK  113  A    between atoms: _266  and  _268
REMARK  114  A    between atoms: _268  and  _269
REMARK  115  A    between atoms: _268  and  _271
REMARK  116  A    between atoms: _271  and  _272
REMARK  117  A    between atoms: _272  and  _273
REMARK  118  A    between atoms: _273  and  _274
REMARK  119  A    between atoms: _274  and  _275
REMARK  120  A    between atoms: _279  and  _281
REMARK  121  A    between atoms: _281  and  _282
REMARK  122  A    between atoms: _281  and  _284
REMARK  123  A    between atoms: _284  and  _285
REMARK  124  A    between atoms: _288  and  _290
REMARK  125  A    between atoms: _290  and  _291
REMARK  126  A    between atoms: _290  and  _293
REMARK  127  A    between atoms: _296  and  _298
REMARK  128  A    between atoms: _298  and  _299
REMARK  129  A    between atoms: _298  and  _301
REMARK  130  A    between atoms: _301  and  _302
REMARK  131  A    between atoms: _305  and  _307
REMARK  132  A    between atoms: _307  and  _308
REMARK  133  A    between atoms: _307  and  _310
REMARK  134  A    between atoms: _310  and  _311
REMARK  135  A    between atoms: _314  and  _316
REMARK  136  A    between atoms: _316  and  _317
REMARK  137  A    between atoms: _316  and  _319
REMARK  138  A    between atoms: _319  and  _320
REMARK  139  A    between atoms: _320  and  _321
REMARK  140  A    between atoms: _324  and  _326
REMARK  141  A    between atoms: _326  and  _327
REMARK  142  A    between atoms: _326  and  _329
REMARK  143  A    between atoms: _329  and  _330
REMARK  144  A    between atoms: _333  and  _335
REMARK  145  A    between atoms: _335  and  _336
REMARK  146  A    between atoms: _335  and  _338
REMARK  147  A    between atoms: _341  and  _343
REMARK  148  A    between atoms: _343  and  _344
REMARK  149  A    between atoms: _343  and  _346
REMARK  150  A    between atoms: _346  and  _347
REMARK  151  A    between atoms: _350  and  _352
REMARK  152  A    between atoms: _352  and  _353
REMARK  153  A    between atoms: _352  and  _355
REMARK  154  A    between atoms: _358  and  _360
REMARK  155  A    between atoms: _360  and  _361
REMARK  156  A    between atoms: _360  and  _363
REMARK  157  A    between atoms: _363  and  _364
REMARK  158  A    between atoms: _367  and  _369
REMARK  159  A    between atoms: _369  and  _370
REMARK  160  A    between atoms: _372  and  _374
REMARK  161  A    between atoms: _374  and  _375
REMARK  162  A    between atoms: _374  and  _377
REMARK  163  A    between atoms: _377  and  _378
REMARK  164  A    between atoms: _385  and  _386
REMARK  165  A    between atoms: _391  and  _393
REMARK  166  A    between atoms: _393  and  _394
REMARK  167  A    between atoms: _393  and  _396
REMARK  168  A    between atoms: _396  and  _397
REMARK  169  A    between atoms: _397  and  _398
REMARK  170  A    between atoms: _398  and  _399
REMARK  171  A    between atoms: _408  and  _410
REMARK  172  A    between atoms: _410  and  _411
REMARK  173  A    between atoms: _410  and  _413
REMARK  174  A    between atoms: _413  and  _414
REMARK  175  A    between atoms: _417  and  _419
REMARK  176  A    between atoms: _419  and  _420
REMARK  177  A    between atoms: _419  and  _422
REMARK  178  A    between atoms: _422  and  _423
REMARK  179  A    between atoms: _423  and  _424
REMARK  180  A    between atoms: _429  and  _431
REMARK  181  A    between atoms: _431  and  _432
REMARK  182  A    between atoms: _431  and  _434
REMARK  183  A    between atoms: _434  and  _435
REMARK  184  A    between atoms: _441  and  _443
REMARK  185  A    between atoms: _443  and  _444
REMARK  186  A    between atoms: _443  and  _446
REMARK  187  A    between atoms: _449  and  _451
REMARK  188  A    between atoms: _451  and  _452
REMARK  189  A    between atoms: _451  and  _454
REMARK  190  A    between atoms: _454  and  _455
REMARK  191  A    between atoms: _458  and  _460
REMARK  192  A    between atoms: _460  and  _461
REMARK  193  A    between atoms: _460  and  _463
REMARK  194  A    between atoms: _463  and  _464
REMARK  195  A    between atoms: _467  and  _469
REMARK  196  A    between atoms: _469  and  _470
REMARK  197  A    between atoms: _469  and  _472
REMARK  198  A    between atoms: _475  and  _477
REMARK  199  A    between atoms: _477  and  _478
REMARK  200  A    between atoms: _477  and  _480
REMARK  201  A    between atoms: _480  and  _481
REMARK  202  A    between atoms: _484  and  _486
REMARK  203  A    between atoms: _486  and  _487
REMARK  204  A    between atoms: _486  and  _489
REMARK  205  A    between atoms: _489  and  _490
REMARK  206  A    between atoms: _490  and  _491
REMARK  207  A    between atoms: _491  and  _492
REMARK  208  A    between atoms: _501  and  _503
REMARK  209  A    between atoms: _503  and  _504
REMARK  210  A    between atoms: _503  and  _506
REMARK  211  A    between atoms: _506  and  _507
REMARK  212  A    between atoms: _510  and  _512
REMARK  213  A    between atoms: _512  and  _513
REMARK  214  A    between atoms: _512  and  _515
REMARK  215  A    between atoms: _518  and  _520
REMARK  216  A    between atoms: _520  and  _521
REMARK  217  A    between atoms: _523  and  _525
REMARK  218  A    between atoms: _525  and  _526
REMARK  219  A    between atoms: _525  and  _528
REMARK  220  A    between atoms: _528  and  _529
REMARK  221  A    between atoms: _529  and  _530
REMARK  222  A    between atoms: _530  and  _531
REMARK  223  A    between atoms: _540  and  _542
REMARK  224  A    between atoms: _542  and  _543
REMARK  225  A    between atoms: _542  and  _545
REMARK  226  A    between atoms: _545  and  _546
REMARK  227  A    between atoms: _546  and  _547
REMARK  228  A    between atoms: _547  and  _548
REMARK  229  A    between atoms: _557  and  _559
REMARK  230  A    between atoms: _559  and  _560
REMARK  231  A    between atoms: _559  and  _562
REMARK  232  A    between atoms: _565  and  _567
REMARK  233  A    between atoms: _567  and  _568
REMARK  234  A    between atoms: _570  and  _572
REMARK  235  A    between atoms: _572  and  _573
REMARK  236  A    between atoms: _572  and  _575
REMARK  237  A    between atoms: _575  and  _576
REMARK  238  A    between atoms: _576  and  _577
REMARK  239  A    between atoms: _577  and  _578
REMARK  240  A    between atoms: _587  and  _589
REMARK  241  A    between atoms: _589  and  _590
REMARK  242  A    between atoms: _589  and  _592
REMARK  243  A    between atoms: _595  and  _597
REMARK  244  A    between atoms: _597  and  _598
REMARK  245  A    between atoms: _597  and  _600
REMARK  246  A    between atoms: _600  and  _601
REMARK  247  A    between atoms: _606  and  _607
REMARK  248  A    between atoms: _609  and  _611
REMARK  249  A    between atoms: _611  and  _612
REMARK  250  A    between atoms: _611  and  _614
REMARK  251  A    between atoms: _614  and  _615
REMARK  252  A    between atoms: _620  and  _622
REMARK  253  A    between atoms: _622  and  _623
REMARK  254  A    between atoms: _622  and  _625
REMARK  255  A    between atoms: _628  and  _630
REMARK  256  A    between atoms: _630  and  _631
REMARK  257  A    between atoms: _630  and  _633
REMARK  258  A    between atoms: _633  and  _634
REMARK  259  A    between atoms: _634  and  _635
REMARK  260  A    between atoms: _635  and  _636
REMARK  261  A    between atoms: _636  and  _637
REMARK  262  A    between atoms: _641  and  _643
REMARK  263  A    between atoms: _643  and  _644
REMARK  264  A    between atoms: _643  and  _646
REMARK  265  A    between atoms: _646  and  _647
REMARK  266  A    between atoms: _653  and  _655
REMARK  267  A    between atoms: _655  and  _656
REMARK  268  A    between atoms: _655  and  _658
REMARK  269  A    between atoms: _658  and  _659
REMARK  270  A    between atoms: _665  and  _666
REMARK  271  A    between atoms: _671  and  _673
REMARK  272  A    between atoms: _673  and  _674
REMARK  273  A    between atoms: _673  and  _676
REMARK  274  A    between atoms: _676  and  _677
REMARK  275  A    between atoms: _677  and  _678
REMARK  276  A    between atoms: _678  and  _679
REMARK  277  A    between atoms: _688  and  _690
REMARK  278  A    between atoms: _690  and  _691
REMARK  279  A    between atoms: _690  and  _693
REMARK  280  A    between atoms: _693  and  _694
REMARK  281  A    between atoms: _697  and  _699
REMARK  282  A    between atoms: _699  and  _700
REMARK  283  A    between atoms: _699  and  _702
REMARK  284  A    between atoms: _702  and  _703
REMARK  285  A    between atoms: _706  and  _708
REMARK  286  A    between atoms: _708  and  _709
REMARK  287  A    between atoms: _708  and  _711
REMARK  288  A    between atoms: _711  and  _712
REMARK  289  A    between atoms: _715  and  _717
REMARK  290  A    between atoms: _717  and  _718
REMARK  291  A    between atoms: _717  and  _720
REMARK  292  A    between atoms: _723  and  _725
REMARK  293  A    between atoms: _725  and  _726
REMARK  294  A    between atoms: _725  and  _728
REMARK  295  A    between atoms: _728  and  _729
REMARK  296  A    between atoms: _729  and  _730
REMARK  297  A    between atoms: _730  and  _731
REMARK  298  A    between atoms: _731  and  _732
REMARK  299  A    between atoms: _736  and  _738
REMARK  300  A    between atoms: _738  and  _739
REMARK  301  A    between atoms: _738  and  _741
REMARK  302  A    between atoms: _741  and  _742
REMARK  303  A    between atoms: _742  and  _743
REMARK  304  A    between atoms: _743  and  _744
REMARK  305  A    between atoms: _753  and  _755
REMARK  306  A    between atoms: _755  and  _756
REMARK  307  A    between atoms: _755  and  _758
REMARK  308  A    between atoms: _758  and  _759
REMARK  309  A    between atoms: _762  and  _764
REMARK  310  A    between atoms: _764  and  _765
REMARK  311  A    between atoms: _764  and  _767
REMARK  312  A    between atoms: _767  and  _768
REMARK  313  A    between atoms: _768  and  _769
REMARK  314  A    between atoms: _772  and  _774
REMARK  315  A    between atoms: _774  and  _775
REMARK  316  A    between atoms: _774  and  _777
REMARK  317  A    between atoms: _777  and  _778
REMARK  318  A    between atoms: _788  and  _790
REMARK  319  A    between atoms: _790  and  _791
REMARK  320  A    between atoms: _790  and  _793
REMARK  321  A    between atoms: _793  and  _794
REMARK  322  A    between atoms: _797  and  _799
REMARK  323  A    between atoms: _799  and  _800
REMARK  324  A    between atoms: _799  and  _802
REMARK  325  A    between atoms: _802  and  _803
REMARK  326  A    between atoms: _806  and  _808
REMARK  327  A    between atoms: _808  and  _809
REMARK  328  A    between atoms: _811  and  _813
REMARK  329  A    between atoms: _813  and  _814
REMARK  330  A    between atoms: _813  and  _816
REMARK  331  A    between atoms: _816  and  _817
REMARK  332  A    between atoms: _820  and  _822
REMARK  333  A    between atoms: _822  and  _823
REMARK  334  A    between atoms: _822  and  _825
REMARK  335  A    between atoms: _825  and  _826
REMARK  336  A    between atoms: _826  and  _827
REMARK  337  A    between atoms: _827  and  _828
REMARK  338  A    between atoms: _828  and  _829
REMARK  339  A    between atoms: _834  and  _835
REMARK  340  A    between atoms: _840  and  _842
REMARK  341  A    between atoms: _842  and  _843
REMARK  342  A    between atoms: _842  and  _845
REMARK  343  A    between atoms: _848  and  _850
REMARK  344  A    between atoms: _850  and  _851
REMARK  345  A    between atoms: _854  and  _856
REMARK  346  A    between atoms: _856  and  _857
REMARK  347  A    between atoms: _856  and  _859
REMARK  348  A    between atoms: _859  and  _860
REMARK  349  A    between atoms: _860  and  _861
REMARK  350  A    between atoms: _864  and  _866
REMARK  351  A    between atoms: _866  and  _867
REMARK  352  A    between atoms: _866  and  _869
REMARK  353  A    between atoms: _872  and  _874
REMARK  354  A    between atoms: _874  and  _875
REMARK  355  A    between atoms: _874  and  _877
REMARK  356  A    between atoms: _877  and  _878
REMARK  357  A    between atoms: _878  and  _879
REMARK  358  A    between atoms: _879  and  _880
REMARK                            x       y       z     vdW  Elec       q    Type
REMARK                         _______ _______ _______ _____ _____    ______ ____
ROOT
ATOM      1  O   HOH     1     -26.936  15.965 -29.599  0.00  0.00    +0.000 OA
ENDROOT
TORSDOF 0
REMARK  Name = ../refined-set-2016/4x8o/4x8o_pocket.pdb
REMARK  358 active torsions:
REMARK  status: ('A' for Active; 'I' for Inactive)
REMARK    1  A    between atoms: _1  and  _3
REMARK    2  A    between atoms: _3  and  _4
REMARK    3  A    between atoms: _3  and  _6
REMARK    4  A    between atoms: _6  and  _7
REMARK    5  A    between atoms: _10  and  _12
REMARK    6  A    between atoms: _12  and  _13
REMARK    7  A    between atoms: _12  and  _15
REMARK    8  A    between atoms: _15  and  _16
REMARK    9  A    between atoms: _19  and  _21
REMARK   10  A    between atoms: _21  and  _22
REMARK   11  A    between atoms: _24  and  _26
REMARK   12  A    between atoms: _26  and  _27
REMARK   13  A    between atoms: _31  and  _32
REMARK   14  A    between atoms: _37  and  _39
REMARK   15  A    between atoms: _39  and  _40
REMARK   16  A    between atoms: _42  and  _44
REMARK   17  A    between atoms: _44  and  _45
REMARK   18  A    between atoms: _48  and  _50
REMARK   19  A    between atoms: _50  and  _51
REMARK   20  A    between atoms: _53  and  _55
REMARK   21  A    between atoms: _55  and  _56
REMARK   22  A    between atoms: _55  and  _58
REMARK   23  A    between atoms: _58  and  _59
REMARK   24  A    between atoms: _59  and  _60
REMARK   25  A    between atoms: _60  and  _61
REMARK   26  A    between atoms: _61  and  _62
REMARK   27  A    between atoms: _66  and  _68
REMARK   28  A    between atoms: _68  and  _69
REMARK   29  A    between atoms: _71  and  _73
REMARK   30  A    between atoms: _73  and  _74
REMARK   31  A    between atoms: _73  and  _76
REMARK   32  A    between atoms: _76  and  _77
REMARK   33  A    between atoms: _80  and  _82
REMARK   34  A    between atoms: _82  and  _83
REMARK   35  A    between atoms: _82  and  _85
REMARK   36  A    between atoms: _85  and  _86
REMARK   37  A    between atoms: _86  and  _87
REMARK   38  A    between atoms: _92  and  _94
REMARK   39  A    between atoms: _94  and  _95
REMARK   40  A    between atoms: _98  and  _100
REMARK   41  A    between atoms: _100  and  _101
REMARK   42  A    between atoms: _100  and  _103
REMARK   43  A    between atoms: _103  and  _104
REMARK   44  A    between atoms: _104  and  _105
REMARK   45  A    between atoms: _110  and  _112
REMARK   46  A    between atoms: _112  and  _113
REMARK   47  A    between atoms: _112  and  _115
REMARK   48  A    between atoms: _115  and  _116
REMARK   49  A    between atoms: _122  and  _124
REMARK   50  A    between atoms: _124  and  _125
REMARK   51  A    between atoms: _124  and  _127
REMARK   52  A    between atoms: _127  and  _128
REMARK   53  A    between atoms: _128  and  _129
REMARK   54  A    between atoms: _134  and  _136
REMARK   55  A    between atoms: _136  and  _137
REMARK   56  A    between atoms: _136  and  _139
REMARK   57  A    between atoms: _139  and  _140
REMARK   58  A    between atoms: _142  and  _144
REMARK   59  A    between atoms: _144  and  _145
REMARK   60  A    between atoms: _144  and  _147
REMARK   61  A    between atoms: _147  and  _148
REMARK   62  A    between atoms: _151  and  _153
REMARK   63  A    between atoms: _153  and  _154
REMARK   64  A    between atoms: _156  and  _158
REMARK   65  A    between atoms: _158  and  _159
REMARK   66  A    between atoms: _158  and  _161
REMARK   67  A    between atoms: _161  and  _162
REMARK   68  A    between atoms: _165  and  _167
REMARK   69  A    between atoms: _167  and  _168
REMARK   70  A    between atoms: _167  and  _170
REMARK   71  A    between atoms: _170  and  _171
REMARK   72  A    between atoms: _171  and  _172
REMARK   73  A    between atoms: _174  and  _176
REMARK   74  A    between atoms: _176  and  _177
REMARK   75  A    between atoms: _176  and  _179
REMARK   76  A    between atoms: _179  and  _180
REMARK   77  A    between atoms: _183  and  _185
REMARK   78  A    between atoms: _185  and  _186
REMARK   79  A    between atoms: _185  and  _188
REMARK   80  A    between atoms: _188  and  _189
REMARK   81  A    between atoms: _189  and  _190
REMARK   82  A    between atoms: _190  and  _191
REMARK   83  A    between atoms: _200  and  _202
REMARK   84  A    between atoms: _202  and  _203
REMARK   85  A    between atoms: _206  and  _208
REMARK   86  A    between atoms: _208  and  _209
REMARK   87  A    between atoms: _208  and  _211
REMARK   88  A    between atoms: _211  and  _212
REMARK   89  A    between atoms: _212  and  _213
REMARK   90  A    between atoms: _213  and  _214
REMARK   91  A    between atoms: _214  and  _215
REMARK   92  A    between atoms: _219  and  _221
REMARK   93  A    between atoms: _221  and  _222
REMARK   94  A    between atoms: _221  and  _224
REMARK   95  A    between atoms: _224  and  _225
REMARK   96  A    between atoms: _228  and  _230
REMARK   97  A    between atoms: _230  and  _231
REMARK   98  A    between atoms: _230  and  _233
REMARK   99  A    between atoms: _233  and  _234
REMARK  100  A    between atoms: _237  and  _239
REMARK  101  A    between atoms: _239  and  _240
REMARK  102  A    between atoms: _239  and  _242
REMARK  103  A    between atoms: _242  and  _243
REMARK  104  A    between atoms: _243  and  _244
REMARK  105  A    between atoms: _246  and  _248
REMARK  106  A    between atoms: _248  and  _249
REMARK  107  A    between atoms: _248  and  _251
REMARK  108  A    between atoms: _251  and  _252
REMARK  109  A    between atoms: _255  and  _257
REMARK  110  A    between atoms: _257  and  _258
REMARK  111  A    between atoms: _261  and  _263
REMARK  112  A    between atoms: _263  and  _264
REMARK  113  A    between atoms: _266  and  _268
REMARK  114  A    between atoms: _268  and  _269
REMARK  115  A    between atoms: _268  and  _271
REMARK  116  A    between atoms: _271  and  _272
REMARK  117  A    between atoms: _272  and  _273
REMARK  118  A    between atoms: _273  and  _274
REMARK  119  A    between atoms: _274  and  _275
REMARK  120  A    between atoms: _279  and  _281
REMARK  121  A    between atoms: _281  and  _282
REMARK  122  A    between atoms: _281  and  _284
REMARK  123  A    between atoms: _284  and  _285
REMARK  124  A    between atoms: _288  and  _290
REMARK  125  A    between atoms: _290  and  _291
REMARK  126  A    between atoms: _290  and  _293
REMARK  127  A    between atoms: _296  and  _298
REMARK  128  A    between atoms: _298  and  _299
REMARK  129  A    between atoms: _298  and  _301
REMARK  130  A    between atoms: _301  and  _302
REMARK  131  A    between atoms: _305  and  _307
REMARK  132  A    between atoms: _307  and  _308
REMARK  133  A    between atoms: _307  and  _310
REMARK  134  A    between atoms: _310  and  _311
REMARK  135  A    between atoms: _314  and  _316
REMARK  136  A    between atoms: _316  and  _317
REMARK  137  A    between atoms: _316  and  _319
REMARK  138  A    between atoms: _319  and  _320
REMARK  139  A    between atoms: _320  and  _321
REMARK  140  A    between atoms: _324  and  _326
REMARK  141  A    between atoms: _326  and  _327
REMARK  142  A    between atoms: _326  and  _329
REMARK  143  A    between atoms: _329  and  _330
REMARK  144  A    between atoms: _333  and  _335
REMARK  145  A    between atoms: _335  and  _336
REMARK  146  A    between atoms: _335  and  _338
REMARK  147  A    between atoms: _341  and  _343
REMARK  148  A    between atoms: _343  and  _344
REMARK  149  A    between atoms: _343  and  _346
REMARK  150  A    between atoms: _346  and  _347
REMARK  151  A    between atoms: _350  and  _352
REMARK  152  A    between atoms: _352  and  _353
REMARK  153  A    between atoms: _352  and  _355
REMARK  154  A    between atoms: _358  and  _360
REMARK  155  A    between atoms: _360  and  _361
REMARK  156  A    between atoms: _360  and  _363
REMARK  157  A    between atoms: _363  and  _364
REMARK  158  A    between atoms: _367  and  _369
REMARK  159  A    between atoms: _369  and  _370
REMARK  160  A    between atoms: _372  and  _374
REMARK  161  A    between atoms: _374  and  _375
REMARK  162  A    between atoms: _374  and  _377
REMARK  163  A    between atoms: _377  and  _378
REMARK  164  A    between atoms: _385  and  _386
REMARK  165  A    between atoms: _391  and  _393
REMARK  166  A    between atoms: _393  and  _394
REMARK  167  A    between atoms: _393  and  _396
REMARK  168  A    between atoms: _396  and  _397
REMARK  169  A    between atoms: _397  and  _398
REMARK  170  A    between atoms: _398  and  _399
REMARK  171  A    between atoms: _408  and  _410
REMARK  172  A    between atoms: _410  and  _411
REMARK  173  A    between atoms: _410  and  _413
REMARK  174  A    between atoms: _413  and  _414
REMARK  175  A    between atoms: _417  and  _419
REMARK  176  A    between atoms: _419  and  _420
REMARK  177  A    between atoms: _419  and  _422
REMARK  178  A    between atoms: _422  and  _423
REMARK  179  A    between atoms: _423  and  _424
REMARK  180  A    between atoms: _429  and  _431
REMARK  181  A    between atoms: _431  and  _432
REMARK  182  A    between atoms: _431  and  _434
REMARK  183  A    between atoms: _434  and  _435
REMARK  184  A    between atoms: _441  and  _443
REMARK  185  A    between atoms: _443  and  _444
REMARK  186  A    between atoms: _443  and  _446
REMARK  187  A    between atoms: _449  and  _451
REMARK  188  A    between atoms: _451  and  _452
REMARK  189  A    between atoms: _451  and  _454
REMARK  190  A    between atoms: _454  and  _455
REMARK  191  A    between atoms: _458  and  _460
REMARK  192  A    between atoms: _460  and  _461
REMARK  193  A    between atoms: _460  and  _463
REMARK  194  A    between atoms: _463  and  _464
REMARK  195  A    between atoms: _467  and  _469
REMARK  196  A    between atoms: _469  and  _470
REMARK  197  A    between atoms: _469  and  _472
REMARK  198  A    between atoms: _475  and  _477
REMARK  199  A    between atoms: _477  and  _478
REMARK  200  A    between atoms: _477  and  _480
REMARK  201  A    between atoms: _480  and  _481
REMARK  202  A    between atoms: _484  and  _486
REMARK  203  A    between atoms: _486  and  _487
REMARK  204  A    between atoms: _486  and  _489
REMARK  205  A    between atoms: _489  and  _490
REMARK  206  A    between atoms: _490  and  _491
REMARK  207  A    between atoms: _491  and  _492
REMARK  208  A    between atoms: _501  and  _503
REMARK  209  A    between atoms: _503  and  _504
REMARK  210  A    between atoms: _503  and  _506
REMARK  211  A    between atoms: _506  and  _507
REMARK  212  A    between atoms: _510  and  _512
REMARK  213  A    between atoms: _512  and  _513
REMARK  214  A    between atoms: _512  and  _515
REMARK  215  A    between atoms: _518  and  _520
REMARK  216  A    between atoms: _520  and  _521
REMARK  217  A    between atoms: _523  and  _525
REMARK  218  A    between atoms: _525  and  _526
REMARK  219  A    between atoms: _525  and  _528
REMARK  220  A    between atoms: _528  and  _529
REMARK  221  A    between atoms: _529  and  _530
REMARK  222  A    between atoms: _530  and  _531
REMARK  223  A    between atoms: _540  and  _542
REMARK  224  A    between atoms: _542  and  _543
REMARK  225  A    between atoms: _542  and  _545
REMARK  226  A    between atoms: _545  and  _546
REMARK  227  A    between atoms: _546  and  _547
REMARK  228  A    between atoms: _547  and  _548
REMARK  229  A    between atoms: _557  and  _559
REMARK  230  A    between atoms: _559  and  _560
REMARK  231  A    between atoms: _559  and  _562
REMARK  232  A    between atoms: _565  and  _567
REMARK  233  A    between atoms: _567  and  _568
REMARK  234  A    between atoms: _570  and  _572
REMARK  235  A    between atoms: _572  and  _573
REMARK  236  A    between atoms: _572  and  _575
REMARK  237  A    between atoms: _575  and  _576
REMARK  238  A    between atoms: _576  and  _577
REMARK  239  A    between atoms: _577  and  _578
REMARK  240  A    between atoms: _587  and  _589
REMARK  241  A    between atoms: _589  and  _590
REMARK  242  A    between atoms: _589  and  _592
REMARK  243  A    between atoms: _595  and  _597
REMARK  244  A    between atoms: _597  and  _598
REMARK  245  A    between atoms: _597  and  _600
REMARK  246  A    between atoms: _600  and  _601
REMARK  247  A    between atoms: _606  and  _607
REMARK  248  A    between atoms: _609  and  _611
REMARK  249  A    between atoms: _611  and  _612
REMARK  250  A    between atoms: _611  and  _614
REMARK  251  A    between atoms: _614  and  _615
REMARK  252  A    between atoms: _620  and  _622
REMARK  253  A    between atoms: _622  and  _623
REMARK  254  A    between atoms: _622  and  _625
REMARK  255  A    between atoms: _628  and  _630
REMARK  256  A    between atoms: _630  and  _631
REMARK  257  A    between atoms: _630  and  _633
REMARK  258  A    between atoms: _633  and  _634
REMARK  259  A    between atoms: _634  and  _635
REMARK  260  A    between atoms: _635  and  _636
REMARK  261  A    between atoms: _636  and  _637
REMARK  262  A    between atoms: _641  and  _643
REMARK  263  A    between atoms: _643  and  _644
REMARK  264  A    between atoms: _643  and  _646
REMARK  265  A    between atoms: _646  and  _647
REMARK  266  A    between atoms: _653  and  _655
REMARK  267  A    between atoms: _655  and  _656
REMARK  268  A    between atoms: _655  and  _658
REMARK  269  A    between atoms: _658  and  _659
REMARK  270  A    between atoms: _665  and  _666
REMARK  271  A    between atoms: _671  and  _673
REMARK  272  A    between atoms: _673  and  _674
REMARK  273  A    between atoms: _673  and  _676
REMARK  274  A    between atoms: _676  and  _677
REMARK  275  A    between atoms: _677  and  _678
REMARK  276  A    between atoms: _678  and  _679
REMARK  277  A    between atoms: _688  and  _690
REMARK  278  A    between atoms: _690  and  _691
REMARK  279  A    between atoms: _690  and  _693
REMARK  280  A    between atoms: _693  and  _694
REMARK  281  A    between atoms: _697  and  _699
REMARK  282  A    between atoms: _699  and  _700
REMARK  283  A    between atoms: _699  and  _702
REMARK  284  A    between atoms: _702  and  _703
REMARK  285  A    between atoms: _706  and  _708
REMARK  286  A    between atoms: _708  and  _709
REMARK  287  A    between atoms: _708  and  _711
REMARK  288  A    between atoms: _711  and  _712
REMARK  289  A    between atoms: _715  and  _717
REMARK  290  A    between atoms: _717  and  _718
REMARK  291  A    between atoms: _717  and  _720
REMARK  292  A    between atoms: _723  and  _725
REMARK  293  A    between atoms: _725  and  _726
REMARK  294  A    between atoms: _725  and  _728
REMARK  295  A    between atoms: _728  and  _729
REMARK  296  A    between atoms: _729  and  _730
REMARK  297  A    between atoms: _730  and  _731
REMARK  298  A    between atoms: _731  and  _732
REMARK  299  A    between atoms: _736  and  _738
REMARK  300  A    between atoms: _738  and  _739
REMARK  301  A    between atoms: _738  and  _741
REMARK  302  A    between atoms: _741  and  _742
REMARK  303  A    between atoms: _742  and  _743
REMARK  304  A    between atoms: _743  and  _744
REMARK  305  A    between atoms: _753  and  _755
REMARK  306  A    between atoms: _755  and  _756
REMARK  307  A    between atoms: _755  and  _758
REMARK  308  A    between atoms: _758  and  _759
REMARK  309  A    between atoms: _762  and  _764
REMARK  310  A    between atoms: _764  and  _765
REMARK  311  A    between atoms: _764  and  _767
REMARK  312  A    between atoms: _767  and  _768
REMARK  313  A    between atoms: _768  and  _769
REMARK  314  A    between atoms: _772  and  _774
REMARK  315  A    between atoms: _774  and  _775
REMARK  316  A    between atoms: _774  and  _777
REMARK  317  A    between atoms: _777  and  _778
REMARK  318  A    between atoms: _788  and  _790
REMARK  319  A    between atoms: _790  and  _791
REMARK  320  A    between atoms: _790  and  _793
REMARK  321  A    between atoms: _793  and  _794
REMARK  322  A    between atoms: _797  and  _799
REMARK  323  A    between atoms: _799  and  _800
REMARK  324  A    between atoms: _799  and  _802
REMARK  325  A    between atoms: _802  and  _803
REMARK  326  A    between atoms: _806  and  _808
REMARK  327  A    between atoms: _808  and  _809
REMARK  328  A    between atoms: _811  and  _813
REMARK  329  A    between atoms: _813  and  _814
REMARK  330  A    between atoms: _813  and  _816
REMARK  331  A    between atoms: _816  and  _817
REMARK  332  A    between atoms: _820  and  _822
REMARK  333  A    between atoms: _822  and  _823
REMARK  334  A    between atoms: _822  and  _825
REMARK  335  A    between atoms: _825  and  _826
REMARK  336  A    between atoms: _826  and  _827
REMARK  337  A    between atoms: _827  and  _828
REMARK  338  A    between atoms: _828  and  _829
REMARK  339  A    between atoms: _834  and  _835
REMARK  340  A    between atoms: _840  and  _842
REMARK  341  A    between atoms: _842  and  _843
REMARK  342  A    between atoms: _842  and  _845
REMARK  343  A    between atoms: _848  and  _850
REMARK  344  A    between atoms: _850  and  _851
REMARK  345  A    between atoms: _854  and  _856
REMARK  346  A    between atoms: _856  and  _857
REMARK  347  A    between atoms: _856  and  _859
REMARK  348  A    between atoms: _859  and  _860
REMARK  349  A    between atoms: _860  and  _861
REMARK  350  A    between atoms: _864  and  _866
REMARK  351  A    between atoms: _866  and  _867
REMARK  352  A    between atoms: _866  and  _869
REMARK  353  A    between atoms: _872  and  _874
REMARK  354  A    between atoms: _874  and  _875
REMARK  355  A    between atoms: _874  and  _877
REMARK  356  A    between atoms: _877  and  _878
REMARK  357  A    between atoms: _878  and  _879
REMARK  358  A    between atoms: _879  and  _880
REMARK                            x       y       z     vdW  Elec       q    Type
REMARK                         _______ _______ _______ _____ _____    ______ ____
ROOT
ATOM      1  O   HOH     1     -15.222  19.927 -42.009  0.00  0.00    +0.000 OA
ENDROOT
TORSDOF 0
REMARK  Name = ../refined-set-2016/4x8o/4x8o_pocket.pdb
REMARK  358 active torsions:
REMARK  status: ('A' for Active; 'I' for Inactive)
REMARK    1  A    between atoms: _1  and  _3
REMARK    2  A    between atoms: _3  and  _4
REMARK    3  A    between atoms: _3  and  _6
REMARK    4  A    between atoms: _6  and  _7
REMARK    5  A    between atoms: _10  and  _12
REMARK    6  A    between atoms: _12  and  _13
REMARK    7  A    between atoms: _12  and  _15
REMARK    8  A    between atoms: _15  and  _16
REMARK    9  A    between atoms: _19  and  _21
REMARK   10  A    between atoms: _21  and  _22
REMARK   11  A    between atoms: _24  and  _26
REMARK   12  A    between atoms: _26  and  _27
REMARK   13  A    between atoms: _31  and  _32
REMARK   14  A    between atoms: _37  and  _39
REMARK   15  A    between atoms: _39  and  _40
REMARK   16  A    between atoms: _42  and  _44
REMARK   17  A    between atoms: _44  and  _45
REMARK   18  A    between atoms: _48  and  _50
REMARK   19  A    between atoms: _50  and  _51
REMARK   20  A    between atoms: _53  and  _55
REMARK   21  A    between atoms: _55  and  _56
REMARK   22  A    between atoms: _55  and  _58
REMARK   23  A    between atoms: _58  and  _59
REMARK   24  A    between atoms: _59  and  _60
REMARK   25  A    between atoms: _60  and  _61
REMARK   26  A    between atoms: _61  and  _62
REMARK   27  A    between atoms: _66  and  _68
REMARK   28  A    between atoms: _68  and  _69
REMARK   29  A    between atoms: _71  and  _73
REMARK   30  A    between atoms: _73  and  _74
REMARK   31  A    between atoms: _73  and  _76
REMARK   32  A    between atoms: _76  and  _77
REMARK   33  A    between atoms: _80  and  _82
REMARK   34  A    between atoms: _82  and  _83
REMARK   35  A    between atoms: _82  and  _85
REMARK   36  A    between atoms: _85  and  _86
REMARK   37  A    between atoms: _86  and  _87
REMARK   38  A    between atoms: _92  and  _94
REMARK   39  A    between atoms: _94  and  _95
REMARK   40  A    between atoms: _98  and  _100
REMARK   41  A    between atoms: _100  and  _101
REMARK   42  A    between atoms: _100  and  _103
REMARK   43  A    between atoms: _103  and  _104
REMARK   44  A    between atoms: _104  and  _105
REMARK   45  A    between atoms: _110  and  _112
REMARK   46  A    between atoms: _112  and  _113
REMARK   47  A    between atoms: _112  and  _115
REMARK   48  A    between atoms: _115  and  _116
REMARK   49  A    between atoms: _122  and  _124
REMARK   50  A    between atoms: _124  and  _125
REMARK   51  A    between atoms: _124  and  _127
REMARK   52  A    between atoms: _127  and  _128
REMARK   53  A    between atoms: _128  and  _129
REMARK   54  A    between atoms: _134  and  _136
REMARK   55  A    between atoms: _136  and  _137
REMARK   56  A    between atoms: _136  and  _139
REMARK   57  A    between atoms: _139  and  _140
REMARK   58  A    between atoms: _142  and  _144
REMARK   59  A    between atoms: _144  and  _145
REMARK   60  A    between atoms: _144  and  _147
REMARK   61  A    between atoms: _147  and  _148
REMARK   62  A    between atoms: _151  and  _153
REMARK   63  A    between atoms: _153  and  _154
REMARK   64  A    between atoms: _156  and  _158
REMARK   65  A    between atoms: _158  and  _159
REMARK   66  A    between atoms: _158  and  _161
REMARK   67  A    between atoms: _161  and  _162
REMARK   68  A    between atoms: _165  and  _167
REMARK   69  A    between atoms: _167  and  _168
REMARK   70  A    between atoms: _167  and  _170
REMARK   71  A    between atoms: _170  and  _171
REMARK   72  A    between atoms: _171  and  _172
REMARK   73  A    between atoms: _174  and  _176
REMARK   74  A    between atoms: _176  and  _177
REMARK   75  A    between atoms: _176  and  _179
REMARK   76  A    between atoms: _179  and  _180
REMARK   77  A    between atoms: _183  and  _185
REMARK   78  A    between atoms: _185  and  _186
REMARK   79  A    between atoms: _185  and  _188
REMARK   80  A    between atoms: _188  and  _189
REMARK   81  A    between atoms: _189  and  _190
REMARK   82  A    between atoms: _190  and  _191
REMARK   83  A    between atoms: _200  and  _202
REMARK   84  A    between atoms: _202  and  _203
REMARK   85  A    between atoms: _206  and  _208
REMARK   86  A    between atoms: _208  and  _209
REMARK   87  A    between atoms: _208  and  _211
REMARK   88  A    between atoms: _211  and  _212
REMARK   89  A    between atoms: _212  and  _213
REMARK   90  A    between atoms: _213  and  _214
REMARK   91  A    between atoms: _214  and  _215
REMARK   92  A    between atoms: _219  and  _221
REMARK   93  A    between atoms: _221  and  _222
REMARK   94  A    between atoms: _221  and  _224
REMARK   95  A    between atoms: _224  and  _225
REMARK   96  A    between atoms: _228  and  _230
REMARK   97  A    between atoms: _230  and  _231
REMARK   98  A    between atoms: _230  and  _233
REMARK   99  A    between atoms: _233  and  _234
REMARK  100  A    between atoms: _237  and  _239
REMARK  101  A    between atoms: _239  and  _240
REMARK  102  A    between atoms: _239  and  _242
REMARK  103  A    between atoms: _242  and  _243
REMARK  104  A    between atoms: _243  and  _244
REMARK  105  A    between atoms: _246  and  _248
REMARK  106  A    between atoms: _248  and  _249
REMARK  107  A    between atoms: _248  and  _251
REMARK  108  A    between atoms: _251  and  _252
REMARK  109  A    between atoms: _255  and  _257
REMARK  110  A    between atoms: _257  and  _258
REMARK  111  A    between atoms: _261  and  _263
REMARK  112  A    between atoms: _263  and  _264
REMARK  113  A    between atoms: _266  and  _268
REMARK  114  A    between atoms: _268  and  _269
REMARK  115  A    between atoms: _268  and  _271
REMARK  116  A    between atoms: _271  and  _272
REMARK  117  A    between atoms: _272  and  _273
REMARK  118  A    between atoms: _273  and  _274
REMARK  119  A    between atoms: _274  and  _275
REMARK  120  A    between atoms: _279  and  _281
REMARK  121  A    between atoms: _281  and  _282
REMARK  122  A    between atoms: _281  and  _284
REMARK  123  A    between atoms: _284  and  _285
REMARK  124  A    between atoms: _288  and  _290
REMARK  125  A    between atoms: _290  and  _291
REMARK  126  A    between atoms: _290  and  _293
REMARK  127  A    between atoms: _296  and  _298
REMARK  128  A    between atoms: _298  and  _299
REMARK  129  A    between atoms: _298  and  _301
REMARK  130  A    between atoms: _301  and  _302
REMARK  131  A    between atoms: _305  and  _307
REMARK  132  A    between atoms: _307  and  _308
REMARK  133  A    between atoms: _307  and  _310
REMARK  134  A    between atoms: _310  and  _311
REMARK  135  A    between atoms: _314  and  _316
REMARK  136  A    between atoms: _316  and  _317
REMARK  137  A    between atoms: _316  and  _319
REMARK  138  A    between atoms: _319  and  _320
REMARK  139  A    between atoms: _320  and  _321
REMARK  140  A    between atoms: _324  and  _326
REMARK  141  A    between atoms: _326  and  _327
REMARK  142  A    between atoms: _326  and  _329
REMARK  143  A    between atoms: _329  and  _330
REMARK  144  A    between atoms: _333  and  _335
REMARK  145  A    between atoms: _335  and  _336
REMARK  146  A    between atoms: _335  and  _338
REMARK  147  A    between atoms: _341  and  _343
REMARK  148  A    between atoms: _343  and  _344
REMARK  149  A    between atoms: _343  and  _346
REMARK  150  A    between atoms: _346  and  _347
REMARK  151  A    between atoms: _350  and  _352
REMARK  152  A    between atoms: _352  and  _353
REMARK  153  A    between atoms: _352  and  _355
REMARK  154  A    between atoms: _358  and  _360
REMARK  155  A    between atoms: _360  and  _361
REMARK  156  A    between atoms: _360  and  _363
REMARK  157  A    between atoms: _363  and  _364
REMARK  158  A    between atoms: _367  and  _369
REMARK  159  A    between atoms: _369  and  _370
REMARK  160  A    between atoms: _372  and  _374
REMARK  161  A    between atoms: _374  and  _375
REMARK  162  A    between atoms: _374  and  _377
REMARK  163  A    between atoms: _377  and  _378
REMARK  164  A    between atoms: _385  and  _386
REMARK  165  A    between atoms: _391  and  _393
REMARK  166  A    between atoms: _393  and  _394
REMARK  167  A    between atoms: _393  and  _396
REMARK  168  A    between atoms: _396  and  _397
REMARK  169  A    between atoms: _397  and  _398
REMARK  170  A    between atoms: _398  and  _399
REMARK  171  A    between atoms: _408  and  _410
REMARK  172  A    between atoms: _410  and  _411
REMARK  173  A    between atoms: _410  and  _413
REMARK  174  A    between atoms: _413  and  _414
REMARK  175  A    between atoms: _417  and  _419
REMARK  176  A    between atoms: _419  and  _420
REMARK  177  A    between atoms: _419  and  _422
REMARK  178  A    between atoms: _422  and  _423
REMARK  179  A    between atoms: _423  and  _424
REMARK  180  A    between atoms: _429  and  _431
REMARK  181  A    between atoms: _431  and  _432
REMARK  182  A    between atoms: _431  and  _434
REMARK  183  A    between atoms: _434  and  _435
REMARK  184  A    between atoms: _441  and  _443
REMARK  185  A    between atoms: _443  and  _444
REMARK  186  A    between atoms: _443  and  _446
REMARK  187  A    between atoms: _449  and  _451
REMARK  188  A    between atoms: _451  and  _452
REMARK  189  A    between atoms: _451  and  _454
REMARK  190  A    between atoms: _454  and  _455
REMARK  191  A    between atoms: _458  and  _460
REMARK  192  A    between atoms: _460  and  _461
REMARK  193  A    between atoms: _460  and  _463
REMARK  194  A    between atoms: _463  and  _464
REMARK  195  A    between atoms: _467  and  _469
REMARK  196  A    between atoms: _469  and  _470
REMARK  197  A    between atoms: _469  and  _472
REMARK  198  A    between atoms: _475  and  _477
REMARK  199  A    between atoms: _477  and  _478
REMARK  200  A    between atoms: _477  and  _480
REMARK  201  A    between atoms: _480  and  _481
REMARK  202  A    between atoms: _484  and  _486
REMARK  203  A    between atoms: _486  and  _487
REMARK  204  A    between atoms: _486  and  _489
REMARK  205  A    between atoms: _489  and  _490
REMARK  206  A    between atoms: _490  and  _491
REMARK  207  A    between atoms: _491  and  _492
REMARK  208  A    between atoms: _501  and  _503
REMARK  209  A    between atoms: _503  and  _504
REMARK  210  A    between atoms: _503  and  _506
REMARK  211  A    between atoms: _506  and  _507
REMARK  212  A    between atoms: _510  and  _512
REMARK  213  A    between atoms: _512  and  _513
REMARK  214  A    between atoms: _512  and  _515
REMARK  215  A    between atoms: _518  and  _520
REMARK  216  A    between atoms: _520  and  _521
REMARK  217  A    between atoms: _523  and  _525
REMARK  218  A    between atoms: _525  and  _526
REMARK  219  A    between atoms: _525  and  _528
REMARK  220  A    between atoms: _528  and  _529
REMARK  221  A    between atoms: _529  and  _530
REMARK  222  A    between atoms: _530  and  _531
REMARK  223  A    between atoms: _540  and  _542
REMARK  224  A    between atoms: _542  and  _543
REMARK  225  A    between atoms: _542  and  _545
REMARK  226  A    between atoms: _545  and  _546
REMARK  227  A    between atoms: _546  and  _547
REMARK  228  A    between atoms: _547  and  _548
REMARK  229  A    between atoms: _557  and  _559
REMARK  230  A    between atoms: _559  and  _560
REMARK  231  A    between atoms: _559  and  _562
REMARK  232  A    between atoms: _565  and  _567
REMARK  233  A    between atoms: _567  and  _568
REMARK  234  A    between atoms: _570  and  _572
REMARK  235  A    between atoms: _572  and  _573
REMARK  236  A    between atoms: _572  and  _575
REMARK  237  A    between atoms: _575  and  _576
REMARK  238  A    between atoms: _576  and  _577
REMARK  239  A    between atoms: _577  and  _578
REMARK  240  A    between atoms: _587  and  _589
REMARK  241  A    between atoms: _589  and  _590
REMARK  242  A    between atoms: _589  and  _592
REMARK  243  A    between atoms: _595  and  _597
REMARK  244  A    between atoms: _597  and  _598
REMARK  245  A    between atoms: _597  and  _600
REMARK  246  A    between atoms: _600  and  _601
REMARK  247  A    between atoms: _606  and  _607
REMARK  248  A    between atoms: _609  and  _611
REMARK  249  A    between atoms: _611  and  _612
REMARK  250  A    between atoms: _611  and  _614
REMARK  251  A    between atoms: _614  and  _615
REMARK  252  A    between atoms: _620  and  _622
REMARK  253  A    between atoms: _622  and  _623
REMARK  254  A    between atoms: _622  and  _625
REMARK  255  A    between atoms: _628  and  _630
REMARK  256  A    between atoms: _630  and  _631
REMARK  257  A    between atoms: _630  and  _633
REMARK  258  A    between atoms: _633  and  _634
REMARK  259  A    between atoms: _634  and  _635
REMARK  260  A    between atoms: _635  and  _636
REMARK  261  A    between atoms: _636  and  _637
REMARK  262  A    between atoms: _641  and  _643
REMARK  263  A    between atoms: _643  and  _644
REMARK  264  A    between atoms: _643  and  _646
REMARK  265  A    between atoms: _646  and  _647
REMARK  266  A    between atoms: _653  and  _655
REMARK  267  A    between atoms: _655  and  _656
REMARK  268  A    between atoms: _655  and  _658
REMARK  269  A    between atoms: _658  and  _659
REMARK  270  A    between atoms: _665  and  _666
REMARK  271  A    between atoms: _671  and  _673
REMARK  272  A    between atoms: _673  and  _674
REMARK  273  A    between atoms: _673  and  _676
REMARK  274  A    between atoms: _676  and  _677
REMARK  275  A    between atoms: _677  and  _678
REMARK  276  A    between atoms: _678  and  _679
REMARK  277  A    between atoms: _688  and  _690
REMARK  278  A    between atoms: _690  and  _691
REMARK  279  A    between atoms: _690  and  _693
REMARK  280  A    between atoms: _693  and  _694
REMARK  281  A    between atoms: _697  and  _699
REMARK  282  A    between atoms: _699  and  _700
REMARK  283  A    between atoms: _699  and  _702
REMARK  284  A    between atoms: _702  and  _703
REMARK  285  A    between atoms: _706  and  _708
REMARK  286  A    between atoms: _708  and  _709
REMARK  287  A    between atoms: _708  and  _711
REMARK  288  A    between atoms: _711  and  _712
REMARK  289  A    between atoms: _715  and  _717
REMARK  290  A    between atoms: _717  and  _718
REMARK  291  A    between atoms: _717  and  _720
REMARK  292  A    between atoms: _723  and  _725
REMARK  293  A    between atoms: _725  and  _726
REMARK  294  A    between atoms: _725  and  _728
REMARK  295  A    between atoms: _728  and  _729
REMARK  296  A    between atoms: _729  and  _730
REMARK  297  A    between atoms: _730  and  _731
REMARK  298  A    between atoms: _731  and  _732
REMARK  299  A    between atoms: _736  and  _738
REMARK  300  A    between atoms: _738  and  _739
REMARK  301  A    between atoms: _738  and  _741
REMARK  302  A    between atoms: _741  and  _742
REMARK  303  A    between atoms: _742  and  _743
REMARK  304  A    between atoms: _743  and  _744
REMARK  305  A    between atoms: _753  and  _755
REMARK  306  A    between atoms: _755  and  _756
REMARK  307  A    between atoms: _755  and  _758
REMARK  308  A    between atoms: _758  and  _759
REMARK  309  A    between atoms: _762  and  _764
REMARK  310  A    between atoms: _764  and  _765
REMARK  311  A    between atoms: _764  and  _767
REMARK  312  A    between atoms: _767  and  _768
REMARK  313  A    between atoms: _768  and  _769
REMARK  314  A    between atoms: _772  and  _774
REMARK  315  A    between atoms: _774  and  _775
REMARK  316  A    between atoms: _774  and  _777
REMARK  317  A    between atoms: _777  and  _778
REMARK  318  A    between atoms: _788  and  _790
REMARK  319  A    between atoms: _790  and  _791
REMARK  320  A    between atoms: _790  and  _793
REMARK  321  A    between atoms: _793  and  _794
REMARK  322  A    between atoms: _797  and  _799
REMARK  323  A    between atoms: _799  and  _800
REMARK  324  A    between atoms: _799  and  _802
REMARK  325  A    between atoms: _802  and  _803
REMARK  326  A    between atoms: _806  and  _808
REMARK  327  A    between atoms: _808  and  _809
REMARK  328  A    between atoms: _811  and  _813
REMARK  329  A    between atoms: _813  and  _814
REMARK  330  A    between atoms: _813  and  _816
REMARK  331  A    between atoms: _816  and  _817
REMARK  332  A    between atoms: _820  and  _822
REMARK  333  A    between atoms: _822  and  _823
REMARK  334  A    between atoms: _822  and  _825
REMARK  335  A    between atoms: _825  and  _826
REMARK  336  A    between atoms: _826  and  _827
REMARK  337  A    between atoms: _827  and  _828
REMARK  338  A    between atoms: _828  and  _829
REMARK  339  A    between atoms: _834  and  _835
REMARK  340  A    between atoms: _840  and  _842
REMARK  341  A    between atoms: _842  and  _843
REMARK  342  A    between atoms: _842  and  _845
REMARK  343  A    between atoms: _848  and  _850
REMARK  344  A    between atoms: _850  and  _851
REMARK  345  A    between atoms: _854  and  _856
REMARK  346  A    between atoms: _856  and  _857
REMARK  347  A    between atoms: _856  and  _859
REMARK  348  A    between atoms: _859  and  _860
REMARK  349  A    between atoms: _860  and  _861
REMARK  350  A    between atoms: _864  and  _866
REMARK  351  A    between atoms: _866  and  _867
REMARK  352  A    between atoms: _866  and  _869
REMARK  353  A    between atoms: _872  and  _874
REMARK  354  A    between atoms: _874  and  _875
REMARK  355  A    between atoms: _874  and  _877
REMARK  356  A    between atoms: _877  and  _878
REMARK  357  A    between atoms: _878  and  _879
REMARK  358  A    between atoms: _879  and  _880
REMARK                            x       y       z     vdW  Elec       q    Type
REMARK                         _______ _______ _______ _____ _____    ______ ____
ROOT
ATOM      1  O   HOH     1     -17.462  20.585 -37.066  0.00  0.00    +0.000 OA
ENDROOT
TORSDOF 0
REMARK  Name = ../refined-set-2016/4x8o/4x8o_pocket.pdb
REMARK  358 active torsions:
REMARK  status: ('A' for Active; 'I' for Inactive)
REMARK    1  A    between atoms: _1  and  _3
REMARK    2  A    between atoms: _3  and  _4
REMARK    3  A    between atoms: _3  and  _6
REMARK    4  A    between atoms: _6  and  _7
REMARK    5  A    between atoms: _10  and  _12
REMARK    6  A    between atoms: _12  and  _13
REMARK    7  A    between atoms: _12  and  _15
REMARK    8  A    between atoms: _15  and  _16
REMARK    9  A    between atoms: _19  and  _21
REMARK   10  A    between atoms: _21  and  _22
REMARK   11  A    between atoms: _24  and  _26
REMARK   12  A    between atoms: _26  and  _27
REMARK   13  A    between atoms: _31  and  _32
REMARK   14  A    between atoms: _37  and  _39
REMARK   15  A    between atoms: _39  and  _40
REMARK   16  A    between atoms: _42  and  _44
REMARK   17  A    between atoms: _44  and  _45
REMARK   18  A    between atoms: _48  and  _50
REMARK   19  A    between atoms: _50  and  _51
REMARK   20  A    between atoms: _53  and  _55
REMARK   21  A    between atoms: _55  and  _56
REMARK   22  A    between atoms: _55  and  _58
REMARK   23  A    between atoms: _58  and  _59
REMARK   24  A    between atoms: _59  and  _60
REMARK   25  A    between atoms: _60  and  _61
REMARK   26  A    between atoms: _61  and  _62
REMARK   27  A    between atoms: _66  and  _68
REMARK   28  A    between atoms: _68  and  _69
REMARK   29  A    between atoms: _71  and  _73
REMARK   30  A    between atoms: _73  and  _74
REMARK   31  A    between atoms: _73  and  _76
REMARK   32  A    between atoms: _76  and  _77
REMARK   33  A    between atoms: _80  and  _82
REMARK   34  A    between atoms: _82  and  _83
REMARK   35  A    between atoms: _82  and  _85
REMARK   36  A    between atoms: _85  and  _86
REMARK   37  A    between atoms: _86  and  _87
REMARK   38  A    between atoms: _92  and  _94
REMARK   39  A    between atoms: _94  and  _95
REMARK   40  A    between atoms: _98  and  _100
REMARK   41  A    between atoms: _100  and  _101
REMARK   42  A    between atoms: _100  and  _103
REMARK   43  A    between atoms: _103  and  _104
REMARK   44  A    between atoms: _104  and  _105
REMARK   45  A    between atoms: _110  and  _112
REMARK   46  A    between atoms: _112  and  _113
REMARK   47  A    between atoms: _112  and  _115
REMARK   48  A    between atoms: _115  and  _116
REMARK   49  A    between atoms: _122  and  _124
REMARK   50  A    between atoms: _124  and  _125
REMARK   51  A    between atoms: _124  and  _127
REMARK   52  A    between atoms: _127  and  _128
REMARK   53  A    between atoms: _128  and  _129
REMARK   54  A    between atoms: _134  and  _136
REMARK   55  A    between atoms: _136  and  _137
REMARK   56  A    between atoms: _136  and  _139
REMARK   57  A    between atoms: _139  and  _140
REMARK   58  A    between atoms: _142  and  _144
REMARK   59  A    between atoms: _144  and  _145
REMARK   60  A    between atoms: _144  and  _147
REMARK   61  A    between atoms: _147  and  _148
REMARK   62  A    between atoms: _151  and  _153
REMARK   63  A    between atoms: _153  and  _154
REMARK   64  A    between atoms: _156  and  _158
REMARK   65  A    between atoms: _158  and  _159
REMARK   66  A    between atoms: _158  and  _161
REMARK   67  A    between atoms: _161  and  _162
REMARK   68  A    between atoms: _165  and  _167
REMARK   69  A    between atoms: _167  and  _168
REMARK   70  A    between atoms: _167  and  _170
REMARK   71  A    between atoms: _170  and  _171
REMARK   72  A    between atoms: _171  and  _172
REMARK   73  A    between atoms: _174  and  _176
REMARK   74  A    between atoms: _176  and  _177
REMARK   75  A    between atoms: _176  and  _179
REMARK   76  A    between atoms: _179  and  _180
REMARK   77  A    between atoms: _183  and  _185
REMARK   78  A    between atoms: _185  and  _186
REMARK   79  A    between atoms: _185  and  _188
REMARK   80  A    between atoms: _188  and  _189
REMARK   81  A    between atoms: _189  and  _190
REMARK   82  A    between atoms: _190  and  _191
REMARK   83  A    between atoms: _200  and  _202
REMARK   84  A    between atoms: _202  and  _203
REMARK   85  A    between atoms: _206  and  _208
REMARK   86  A    between atoms: _208  and  _209
REMARK   87  A    between atoms: _208  and  _211
REMARK   88  A    between atoms: _211  and  _212
REMARK   89  A    between atoms: _212  and  _213
REMARK   90  A    between atoms: _213  and  _214
REMARK   91  A    between atoms: _214  and  _215
REMARK   92  A    between atoms: _219  and  _221
REMARK   93  A    between atoms: _221  and  _222
REMARK   94  A    between atoms: _221  and  _224
REMARK   95  A    between atoms: _224  and  _225
REMARK   96  A    between atoms: _228  and  _230
REMARK   97  A    between atoms: _230  and  _231
REMARK   98  A    between atoms: _230  and  _233
REMARK   99  A    between atoms: _233  and  _234
REMARK  100  A    between atoms: _237  and  _239
REMARK  101  A    between atoms: _239  and  _240
REMARK  102  A    between atoms: _239  and  _242
REMARK  103  A    between atoms: _242  and  _243
REMARK  104  A    between atoms: _243  and  _244
REMARK  105  A    between atoms: _246  and  _248
REMARK  106  A    between atoms: _248  and  _249
REMARK  107  A    between atoms: _248  and  _251
REMARK  108  A    between atoms: _251  and  _252
REMARK  109  A    between atoms: _255  and  _257
REMARK  110  A    between atoms: _257  and  _258
REMARK  111  A    between atoms: _261  and  _263
REMARK  112  A    between atoms: _263  and  _264
REMARK  113  A    between atoms: _266  and  _268
REMARK  114  A    between atoms: _268  and  _269
REMARK  115  A    between atoms: _268  and  _271
REMARK  116  A    between atoms: _271  and  _272
REMARK  117  A    between atoms: _272  and  _273
REMARK  118  A    between atoms: _273  and  _274
REMARK  119  A    between atoms: _274  and  _275
REMARK  120  A    between atoms: _279  and  _281
REMARK  121  A    between atoms: _281  and  _282
REMARK  122  A    between atoms: _281  and  _284
REMARK  123  A    between atoms: _284  and  _285
REMARK  124  A    between atoms: _288  and  _290
REMARK  125  A    between atoms: _290  and  _291
REMARK  126  A    between atoms: _290  and  _293
REMARK  127  A    between atoms: _296  and  _298
REMARK  128  A    between atoms: _298  and  _299
REMARK  129  A    between atoms: _298  and  _301
REMARK  130  A    between atoms: _301  and  _302
REMARK  131  A    between atoms: _305  and  _307
REMARK  132  A    between atoms: _307  and  _308
REMARK  133  A    between atoms: _307  and  _310
REMARK  134  A    between atoms: _310  and  _311
REMARK  135  A    between atoms: _314  and  _316
REMARK  136  A    between atoms: _316  and  _317
REMARK  137  A    between atoms: _316  and  _319
REMARK  138  A    between atoms: _319  and  _320
REMARK  139  A    between atoms: _320  and  _321
REMARK  140  A    between atoms: _324  and  _326
REMARK  141  A    between atoms: _326  and  _327
REMARK  142  A    between atoms: _326  and  _329
REMARK  143  A    between atoms: _329  and  _330
REMARK  144  A    between atoms: _333  and  _335
REMARK  145  A    between atoms: _335  and  _336
REMARK  146  A    between atoms: _335  and  _338
REMARK  147  A    between atoms: _341  and  _343
REMARK  148  A    between atoms: _343  and  _344
REMARK  149  A    between atoms: _343  and  _346
REMARK  150  A    between atoms: _346  and  _347
REMARK  151  A    between atoms: _350  and  _352
REMARK  152  A    between atoms: _352  and  _353
REMARK  153  A    between atoms: _352  and  _355
REMARK  154  A    between atoms: _358  and  _360
REMARK  155  A    between atoms: _360  and  _361
REMARK  156  A    between atoms: _360  and  _363
REMARK  157  A    between atoms: _363  and  _364
REMARK  158  A    between atoms: _367  and  _369
REMARK  159  A    between atoms: _369  and  _370
REMARK  160  A    between atoms: _372  and  _374
REMARK  161  A    between atoms: _374  and  _375
REMARK  162  A    between atoms: _374  and  _377
REMARK  163  A    between atoms: _377  and  _378
REMARK  164  A    between atoms: _385  and  _386
REMARK  165  A    between atoms: _391  and  _393
REMARK  166  A    between atoms: _393  and  _394
REMARK  167  A    between atoms: _393  and  _396
REMARK  168  A    between atoms: _396  and  _397
REMARK  169  A    between atoms: _397  and  _398
REMARK  170  A    between atoms: _398  and  _399
REMARK  171  A    between atoms: _408  and  _410
REMARK  172  A    between atoms: _410  and  _411
REMARK  173  A    between atoms: _410  and  _413
REMARK  174  A    between atoms: _413  and  _414
REMARK  175  A    between atoms: _417  and  _419
REMARK  176  A    between atoms: _419  and  _420
REMARK  177  A    between atoms: _419  and  _422
REMARK  178  A    between atoms: _422  and  _423
REMARK  179  A    between atoms: _423  and  _424
REMARK  180  A    between atoms: _429  and  _431
REMARK  181  A    between atoms: _431  and  _432
REMARK  182  A    between atoms: _431  and  _434
REMARK  183  A    between atoms: _434  and  _435
REMARK  184  A    between atoms: _441  and  _443
REMARK  185  A    between atoms: _443  and  _444
REMARK  186  A    between atoms: _443  and  _446
REMARK  187  A    between atoms: _449  and  _451
REMARK  188  A    between atoms: _451  and  _452
REMARK  189  A    between atoms: _451  and  _454
REMARK  190  A    between atoms: _454  and  _455
REMARK  191  A    between atoms: _458  and  _460
REMARK  192  A    between atoms: _460  and  _461
REMARK  193  A    between atoms: _460  and  _463
REMARK  194  A    between atoms: _463  and  _464
REMARK  195  A    between atoms: _467  and  _469
REMARK  196  A    between atoms: _469  and  _470
REMARK  197  A    between atoms: _469  and  _472
REMARK  198  A    between atoms: _475  and  _477
REMARK  199  A    between atoms: _477  and  _478
REMARK  200  A    between atoms: _477  and  _480
REMARK  201  A    between atoms: _480  and  _481
REMARK  202  A    between atoms: _484  and  _486
REMARK  203  A    between atoms: _486  and  _487
REMARK  204  A    between atoms: _486  and  _489
REMARK  205  A    between atoms: _489  and  _490
REMARK  206  A    between atoms: _490  and  _491
REMARK  207  A    between atoms: _491  and  _492
REMARK  208  A    between atoms: _501  and  _503
REMARK  209  A    between atoms: _503  and  _504
REMARK  210  A    between atoms: _503  and  _506
REMARK  211  A    between atoms: _506  and  _507
REMARK  212  A    between atoms: _510  and  _512
REMARK  213  A    between atoms: _512  and  _513
REMARK  214  A    between atoms: _512  and  _515
REMARK  215  A    between atoms: _518  and  _520
REMARK  216  A    between atoms: _520  and  _521
REMARK  217  A    between atoms: _523  and  _525
REMARK  218  A    between atoms: _525  and  _526
REMARK  219  A    between atoms: _525  and  _528
REMARK  220  A    between atoms: _528  and  _529
REMARK  221  A    between atoms: _529  and  _530
REMARK  222  A    between atoms: _530  and  _531
REMARK  223  A    between atoms: _540  and  _542
REMARK  224  A    between atoms: _542  and  _543
REMARK  225  A    between atoms: _542  and  _545
REMARK  226  A    between atoms: _545  and  _546
REMARK  227  A    between atoms: _546  and  _547
REMARK  228  A    between atoms: _547  and  _548
REMARK  229  A    between atoms: _557  and  _559
REMARK  230  A    between atoms: _559  and  _560
REMARK  231  A    between atoms: _559  and  _562
REMARK  232  A    between atoms: _565  and  _567
REMARK  233  A    between atoms: _567  and  _568
REMARK  234  A    between atoms: _570  and  _572
REMARK  235  A    between atoms: _572  and  _573
REMARK  236  A    between atoms: _572  and  _575
REMARK  237  A    between atoms: _575  and  _576
REMARK  238  A    between atoms: _576  and  _577
REMARK  239  A    between atoms: _577  and  _578
REMARK  240  A    between atoms: _587  and  _589
REMARK  241  A    between atoms: _589  and  _590
REMARK  242  A    between atoms: _589  and  _592
REMARK  243  A    between atoms: _595  and  _597
REMARK  244  A    between atoms: _597  and  _598
REMARK  245  A    between atoms: _597  and  _600
REMARK  246  A    between atoms: _600  and  _601
REMARK  247  A    between atoms: _606  and  _607
REMARK  248  A    between atoms: _609  and  _611
REMARK  249  A    between atoms: _611  and  _612
REMARK  250  A    between atoms: _611  and  _614
REMARK  251  A    between atoms: _614  and  _615
REMARK  252  A    between atoms: _620  and  _622
REMARK  253  A    between atoms: _622  and  _623
REMARK  254  A    between atoms: _622  and  _625
REMARK  255  A    between atoms: _628  and  _630
REMARK  256  A    between atoms: _630  and  _631
REMARK  257  A    between atoms: _630  and  _633
REMARK  258  A    between atoms: _633  and  _634
REMARK  259  A    between atoms: _634  and  _635
REMARK  260  A    between atoms: _635  and  _636
REMARK  261  A    between atoms: _636  and  _637
REMARK  262  A    between atoms: _641  and  _643
REMARK  263  A    between atoms: _643  and  _644
REMARK  264  A    between atoms: _643  and  _646
REMARK  265  A    between atoms: _646  and  _647
REMARK  266  A    between atoms: _653  and  _655
REMARK  267  A    between atoms: _655  and  _656
REMARK  268  A    between atoms: _655  and  _658
REMARK  269  A    between atoms: _658  and  _659
REMARK  270  A    between atoms: _665  and  _666
REMARK  271  A    between atoms: _671  and  _673
REMARK  272  A    between atoms: _673  and  _674
REMARK  273  A    between atoms: _673  and  _676
REMARK  274  A    between atoms: _676  and  _677
REMARK  275  A    between atoms: _677  and  _678
REMARK  276  A    between atoms: _678  and  _679
REMARK  277  A    between atoms: _688  and  _690
REMARK  278  A    between atoms: _690  and  _691
REMARK  279  A    between atoms: _690  and  _693
REMARK  280  A    between atoms: _693  and  _694
REMARK  281  A    between atoms: _697  and  _699
REMARK  282  A    between atoms: _699  and  _700
REMARK  283  A    between atoms: _699  and  _702
REMARK  284  A    between atoms: _702  and  _703
REMARK  285  A    between atoms: _706  and  _708
REMARK  286  A    between atoms: _708  and  _709
REMARK  287  A    between atoms: _708  and  _711
REMARK  288  A    between atoms: _711  and  _712
REMARK  289  A    between atoms: _715  and  _717
REMARK  290  A    between atoms: _717  and  _718
REMARK  291  A    between atoms: _717  and  _720
REMARK  292  A    between atoms: _723  and  _725
REMARK  293  A    between atoms: _725  and  _726
REMARK  294  A    between atoms: _725  and  _728
REMARK  295  A    between atoms: _728  and  _729
REMARK  296  A    between atoms: _729  and  _730
REMARK  297  A    between atoms: _730  and  _731
REMARK  298  A    between atoms: _731  and  _732
REMARK  299  A    between atoms: _736  and  _738
REMARK  300  A    between atoms: _738  and  _739
REMARK  301  A    between atoms: _738  and  _741
REMARK  302  A    between atoms: _741  and  _742
REMARK  303  A    between atoms: _742  and  _743
REMARK  304  A    between atoms: _743  and  _744
REMARK  305  A    between atoms: _753  and  _755
REMARK  306  A    between atoms: _755  and  _756
REMARK  307  A    between atoms: _755  and  _758
REMARK  308  A    between atoms: _758  and  _759
REMARK  309  A    between atoms: _762  and  _764
REMARK  310  A    between atoms: _764  and  _765
REMARK  311  A    between atoms: _764  and  _767
REMARK  312  A    between atoms: _767  and  _768
REMARK  313  A    between atoms: _768  and  _769
REMARK  314  A    between atoms: _772  and  _774
REMARK  315  A    between atoms: _774  and  _775
REMARK  316  A    between atoms: _774  and  _777
REMARK  317  A    between atoms: _777  and  _778
REMARK  318  A    between atoms: _788  and  _790
REMARK  319  A    between atoms: _790  and  _791
REMARK  320  A    between atoms: _790  and  _793
REMARK  321  A    between atoms: _793  and  _794
REMARK  322  A    between atoms: _797  and  _799
REMARK  323  A    between atoms: _799  and  _800
REMARK  324  A    between atoms: _799  and  _802
REMARK  325  A    between atoms: _802  and  _803
REMARK  326  A    between atoms: _806  and  _808
REMARK  327  A    between atoms: _808  and  _809
REMARK  328  A    between atoms: _811  and  _813
REMARK  329  A    between atoms: _813  and  _814
REMARK  330  A    between atoms: _813  and  _816
REMARK  331  A    between atoms: _816  and  _817
REMARK  332  A    between atoms: _820  and  _822
REMARK  333  A    between atoms: _822  and  _823
REMARK  334  A    between atoms: _822  and  _825
REMARK  335  A    between atoms: _825  and  _826
REMARK  336  A    between atoms: _826  and  _827
REMARK  337  A    between atoms: _827  and  _828
REMARK  338  A    between atoms: _828  and  _829
REMARK  339  A    between atoms: _834  and  _835
REMARK  340  A    between atoms: _840  and  _842
REMARK  341  A    between atoms: _842  and  _843
REMARK  342  A    between atoms: _842  and  _845
REMARK  343  A    between atoms: _848  and  _850
REMARK  344  A    between atoms: _850  and  _851
REMARK  345  A    between atoms: _854  and  _856
REMARK  346  A    between atoms: _856  and  _857
REMARK  347  A    between atoms: _856  and  _859
REMARK  348  A    between atoms: _859  and  _860
REMARK  349  A    between atoms: _860  and  _861
REMARK  350  A    between atoms: _864  and  _866
REMARK  351  A    between atoms: _866  and  _867
REMARK  352  A    between atoms: _866  and  _869
REMARK  353  A    between atoms: _872  and  _874
REMARK  354  A    between atoms: _874  and  _875
REMARK  355  A    between atoms: _874  and  _877
REMARK  356  A    between atoms: _877  and  _878
REMARK  357  A    between atoms: _878  and  _879
REMARK  358  A    between atoms: _879  and  _880
REMARK                            x       y       z     vdW  Elec       q    Type
REMARK                         _______ _______ _______ _____ _____    ______ ____
ROOT
ATOM      1  O   HOH     1     -21.821  29.749 -46.504  0.00  0.00    +0.000 OA
ENDROOT
TORSDOF 0
REMARK  Name = ../refined-set-2016/4x8o/4x8o_pocket.pdb
REMARK  358 active torsions:
REMARK  status: ('A' for Active; 'I' for Inactive)
REMARK    1  A    between atoms: _1  and  _3
REMARK    2  A    between atoms: _3  and  _4
REMARK    3  A    between atoms: _3  and  _6
REMARK    4  A    between atoms: _6  and  _7
REMARK    5  A    between atoms: _10  and  _12
REMARK    6  A    between atoms: _12  and  _13
REMARK    7  A    between atoms: _12  and  _15
REMARK    8  A    between atoms: _15  and  _16
REMARK    9  A    between atoms: _19  and  _21
REMARK   10  A    between atoms: _21  and  _22
REMARK   11  A    between atoms: _24  and  _26
REMARK   12  A    between atoms: _26  and  _27
REMARK   13  A    between atoms: _31  and  _32
REMARK   14  A    between atoms: _37  and  _39
REMARK   15  A    between atoms: _39  and  _40
REMARK   16  A    between atoms: _42  and  _44
REMARK   17  A    between atoms: _44  and  _45
REMARK   18  A    between atoms: _48  and  _50
REMARK   19  A    between atoms: _50  and  _51
REMARK   20  A    between atoms: _53  and  _55
REMARK   21  A    between atoms: _55  and  _56
REMARK   22  A    between atoms: _55  and  _58
REMARK   23  A    between atoms: _58  and  _59
REMARK   24  A    between atoms: _59  and  _60
REMARK   25  A    between atoms: _60  and  _61
REMARK   26  A    between atoms: _61  and  _62
REMARK   27  A    between atoms: _66  and  _68
REMARK   28  A    between atoms: _68  and  _69
REMARK   29  A    between atoms: _71  and  _73
REMARK   30  A    between atoms: _73  and  _74
REMARK   31  A    between atoms: _73  and  _76
REMARK   32  A    between atoms: _76  and  _77
REMARK   33  A    between atoms: _80  and  _82
REMARK   34  A    between atoms: _82  and  _83
REMARK   35  A    between atoms: _82  and  _85
REMARK   36  A    between atoms: _85  and  _86
REMARK   37  A    between atoms: _86  and  _87
REMARK   38  A    between atoms: _92  and  _94
REMARK   39  A    between atoms: _94  and  _95
REMARK   40  A    between atoms: _98  and  _100
REMARK   41  A    between atoms: _100  and  _101
REMARK   42  A    between atoms: _100  and  _103
REMARK   43  A    between atoms: _103  and  _104
REMARK   44  A    between atoms: _104  and  _105
REMARK   45  A    between atoms: _110  and  _112
REMARK   46  A    between atoms: _112  and  _113
REMARK   47  A    between atoms: _112  and  _115
REMARK   48  A    between atoms: _115  and  _116
REMARK   49  A    between atoms: _122  and  _124
REMARK   50  A    between atoms: _124  and  _125
REMARK   51  A    between atoms: _124  and  _127
REMARK   52  A    between atoms: _127  and  _128
REMARK   53  A    between atoms: _128  and  _129
REMARK   54  A    between atoms: _134  and  _136
REMARK   55  A    between atoms: _136  and  _137
REMARK   56  A    between atoms: _136  and  _139
REMARK   57  A    between atoms: _139  and  _140
REMARK   58  A    between atoms: _142  and  _144
REMARK   59  A    between atoms: _144  and  _145
REMARK   60  A    between atoms: _144  and  _147
REMARK   61  A    between atoms: _147  and  _148
REMARK   62  A    between atoms: _151  and  _153
REMARK   63  A    between atoms: _153  and  _154
REMARK   64  A    between atoms: _156  and  _158
REMARK   65  A    between atoms: _158  and  _159
REMARK   66  A    between atoms: _158  and  _161
REMARK   67  A    between atoms: _161  and  _162
REMARK   68  A    between atoms: _165  and  _167
REMARK   69  A    between atoms: _167  and  _168
REMARK   70  A    between atoms: _167  and  _170
REMARK   71  A    between atoms: _170  and  _171
REMARK   72  A    between atoms: _171  and  _172
REMARK   73  A    between atoms: _174  and  _176
REMARK   74  A    between atoms: _176  and  _177
REMARK   75  A    between atoms: _176  and  _179
REMARK   76  A    between atoms: _179  and  _180
REMARK   77  A    between atoms: _183  and  _185
REMARK   78  A    between atoms: _185  and  _186
REMARK   79  A    between atoms: _185  and  _188
REMARK   80  A    between atoms: _188  and  _189
REMARK   81  A    between atoms: _189  and  _190
REMARK   82  A    between atoms: _190  and  _191
REMARK   83  A    between atoms: _200  and  _202
REMARK   84  A    between atoms: _202  and  _203
REMARK   85  A    between atoms: _206  and  _208
REMARK   86  A    between atoms: _208  and  _209
REMARK   87  A    between atoms: _208  and  _211
REMARK   88  A    between atoms: _211  and  _212
REMARK   89  A    between atoms: _212  and  _213
REMARK   90  A    between atoms: _213  and  _214
REMARK   91  A    between atoms: _214  and  _215
REMARK   92  A    between atoms: _219  and  _221
REMARK   93  A    between atoms: _221  and  _222
REMARK   94  A    between atoms: _221  and  _224
REMARK   95  A    between atoms: _224  and  _225
REMARK   96  A    between atoms: _228  and  _230
REMARK   97  A    between atoms: _230  and  _231
REMARK   98  A    between atoms: _230  and  _233
REMARK   99  A    between atoms: _233  and  _234
REMARK  100  A    between atoms: _237  and  _239
REMARK  101  A    between atoms: _239  and  _240
REMARK  102  A    between atoms: _239  and  _242
REMARK  103  A    between atoms: _242  and  _243
REMARK  104  A    between atoms: _243  and  _244
REMARK  105  A    between atoms: _246  and  _248
REMARK  106  A    between atoms: _248  and  _249
REMARK  107  A    between atoms: _248  and  _251
REMARK  108  A    between atoms: _251  and  _252
REMARK  109  A    between atoms: _255  and  _257
REMARK  110  A    between atoms: _257  and  _258
REMARK  111  A    between atoms: _261  and  _263
REMARK  112  A    between atoms: _263  and  _264
REMARK  113  A    between atoms: _266  and  _268
REMARK  114  A    between atoms: _268  and  _269
REMARK  115  A    between atoms: _268  and  _271
REMARK  116  A    between atoms: _271  and  _272
REMARK  117  A    between atoms: _272  and  _273
REMARK  118  A    between atoms: _273  and  _274
REMARK  119  A    between atoms: _274  and  _275
REMARK  120  A    between atoms: _279  and  _281
REMARK  121  A    between atoms: _281  and  _282
REMARK  122  A    between atoms: _281  and  _284
REMARK  123  A    between atoms: _284  and  _285
REMARK  124  A    between atoms: _288  and  _290
REMARK  125  A    between atoms: _290  and  _291
REMARK  126  A    between atoms: _290  and  _293
REMARK  127  A    between atoms: _296  and  _298
REMARK  128  A    between atoms: _298  and  _299
REMARK  129  A    between atoms: _298  and  _301
REMARK  130  A    between atoms: _301  and  _302
REMARK  131  A    between atoms: _305  and  _307
REMARK  132  A    between atoms: _307  and  _308
REMARK  133  A    between atoms: _307  and  _310
REMARK  134  A    between atoms: _310  and  _311
REMARK  135  A    between atoms: _314  and  _316
REMARK  136  A    between atoms: _316  and  _317
REMARK  137  A    between atoms: _316  and  _319
REMARK  138  A    between atoms: _319  and  _320
REMARK  139  A    between atoms: _320  and  _321
REMARK  140  A    between atoms: _324  and  _326
REMARK  141  A    between atoms: _326  and  _327
REMARK  142  A    between atoms: _326  and  _329
REMARK  143  A    between atoms: _329  and  _330
REMARK  144  A    between atoms: _333  and  _335
REMARK  145  A    between atoms: _335  and  _336
REMARK  146  A    between atoms: _335  and  _338
REMARK  147  A    between atoms: _341  and  _343
REMARK  148  A    between atoms: _343  and  _344
REMARK  149  A    between atoms: _343  and  _346
REMARK  150  A    between atoms: _346  and  _347
REMARK  151  A    between atoms: _350  and  _352
REMARK  152  A    between atoms: _352  and  _353
REMARK  153  A    between atoms: _352  and  _355
REMARK  154  A    between atoms: _358  and  _360
REMARK  155  A    between atoms: _360  and  _361
REMARK  156  A    between atoms: _360  and  _363
REMARK  157  A    between atoms: _363  and  _364
REMARK  158  A    between atoms: _367  and  _369
REMARK  159  A    between atoms: _369  and  _370
REMARK  160  A    between atoms: _372  and  _374
REMARK  161  A    between atoms: _374  and  _375
REMARK  162  A    between atoms: _374  and  _377
REMARK  163  A    between atoms: _377  and  _378
REMARK  164  A    between atoms: _385  and  _386
REMARK  165  A    between atoms: _391  and  _393
REMARK  166  A    between atoms: _393  and  _394
REMARK  167  A    between atoms: _393  and  _396
REMARK  168  A    between atoms: _396  and  _397
REMARK  169  A    between atoms: _397  and  _398
REMARK  170  A    between atoms: _398  and  _399
REMARK  171  A    between atoms: _408  and  _410
REMARK  172  A    between atoms: _410  and  _411
REMARK  173  A    between atoms: _410  and  _413
REMARK  174  A    between atoms: _413  and  _414
REMARK  175  A    between atoms: _417  and  _419
REMARK  176  A    between atoms: _419  and  _420
REMARK  177  A    between atoms: _419  and  _422
REMARK  178  A    between atoms: _422  and  _423
REMARK  179  A    between atoms: _423  and  _424
REMARK  180  A    between atoms: _429  and  _431
REMARK  181  A    between atoms: _431  and  _432
REMARK  182  A    between atoms: _431  and  _434
REMARK  183  A    between atoms: _434  and  _435
REMARK  184  A    between atoms: _441  and  _443
REMARK  185  A    between atoms: _443  and  _444
REMARK  186  A    between atoms: _443  and  _446
REMARK  187  A    between atoms: _449  and  _451
REMARK  188  A    between atoms: _451  and  _452
REMARK  189  A    between atoms: _451  and  _454
REMARK  190  A    between atoms: _454  and  _455
REMARK  191  A    between atoms: _458  and  _460
REMARK  192  A    between atoms: _460  and  _461
REMARK  193  A    between atoms: _460  and  _463
REMARK  194  A    between atoms: _463  and  _464
REMARK  195  A    between atoms: _467  and  _469
REMARK  196  A    between atoms: _469  and  _470
REMARK  197  A    between atoms: _469  and  _472
REMARK  198  A    between atoms: _475  and  _477
REMARK  199  A    between atoms: _477  and  _478
REMARK  200  A    between atoms: _477  and  _480
REMARK  201  A    between atoms: _480  and  _481
REMARK  202  A    between atoms: _484  and  _486
REMARK  203  A    between atoms: _486  and  _487
REMARK  204  A    between atoms: _486  and  _489
REMARK  205  A    between atoms: _489  and  _490
REMARK  206  A    between atoms: _490  and  _491
REMARK  207  A    between atoms: _491  and  _492
REMARK  208  A    between atoms: _501  and  _503
REMARK  209  A    between atoms: _503  and  _504
REMARK  210  A    between atoms: _503  and  _506
REMARK  211  A    between atoms: _506  and  _507
REMARK  212  A    between atoms: _510  and  _512
REMARK  213  A    between atoms: _512  and  _513
REMARK  214  A    between atoms: _512  and  _515
REMARK  215  A    between atoms: _518  and  _520
REMARK  216  A    between atoms: _520  and  _521
REMARK  217  A    between atoms: _523  and  _525
REMARK  218  A    between atoms: _525  and  _526
REMARK  219  A    between atoms: _525  and  _528
REMARK  220  A    between atoms: _528  and  _529
REMARK  221  A    between atoms: _529  and  _530
REMARK  222  A    between atoms: _530  and  _531
REMARK  223  A    between atoms: _540  and  _542
REMARK  224  A    between atoms: _542  and  _543
REMARK  225  A    between atoms: _542  and  _545
REMARK  226  A    between atoms: _545  and  _546
REMARK  227  A    between atoms: _546  and  _547
REMARK  228  A    between atoms: _547  and  _548
REMARK  229  A    between atoms: _557  and  _559
REMARK  230  A    between atoms: _559  and  _560
REMARK  231  A    between atoms: _559  and  _562
REMARK  232  A    between atoms: _565  and  _567
REMARK  233  A    between atoms: _567  and  _568
REMARK  234  A    between atoms: _570  and  _572
REMARK  235  A    between atoms: _572  and  _573
REMARK  236  A    between atoms: _572  and  _575
REMARK  237  A    between atoms: _575  and  _576
REMARK  238  A    between atoms: _576  and  _577
REMARK  239  A    between atoms: _577  and  _578
REMARK  240  A    between atoms: _587  and  _589
REMARK  241  A    between atoms: _589  and  _590
REMARK  242  A    between atoms: _589  and  _592
REMARK  243  A    between atoms: _595  and  _597
REMARK  244  A    between atoms: _597  and  _598
REMARK  245  A    between atoms: _597  and  _600
REMARK  246  A    between atoms: _600  and  _601
REMARK  247  A    between atoms: _606  and  _607
REMARK  248  A    between atoms: _609  and  _611
REMARK  249  A    between atoms: _611  and  _612
REMARK  250  A    between atoms: _611  and  _614
REMARK  251  A    between atoms: _614  and  _615
REMARK  252  A    between atoms: _620  and  _622
REMARK  253  A    between atoms: _622  and  _623
REMARK  254  A    between atoms: _622  and  _625
REMARK  255  A    between atoms: _628  and  _630
REMARK  256  A    between atoms: _630  and  _631
REMARK  257  A    between atoms: _630  and  _633
REMARK  258  A    between atoms: _633  and  _634
REMARK  259  A    between atoms: _634  and  _635
REMARK  260  A    between atoms: _635  and  _636
REMARK  261  A    between atoms: _636  and  _637
REMARK  262  A    between atoms: _641  and  _643
REMARK  263  A    between atoms: _643  and  _644
REMARK  264  A    between atoms: _643  and  _646
REMARK  265  A    between atoms: _646  and  _647
REMARK  266  A    between atoms: _653  and  _655
REMARK  267  A    between atoms: _655  and  _656
REMARK  268  A    between atoms: _655  and  _658
REMARK  269  A    between atoms: _658  and  _659
REMARK  270  A    between atoms: _665  and  _666
REMARK  271  A    between atoms: _671  and  _673
REMARK  272  A    between atoms: _673  and  _674
REMARK  273  A    between atoms: _673  and  _676
REMARK  274  A    between atoms: _676  and  _677
REMARK  275  A    between atoms: _677  and  _678
REMARK  276  A    between atoms: _678  and  _679
REMARK  277  A    between atoms: _688  and  _690
REMARK  278  A    between atoms: _690  and  _691
REMARK  279  A    between atoms: _690  and  _693
REMARK  280  A    between atoms: _693  and  _694
REMARK  281  A    between atoms: _697  and  _699
REMARK  282  A    between atoms: _699  and  _700
REMARK  283  A    between atoms: _699  and  _702
REMARK  284  A    between atoms: _702  and  _703
REMARK  285  A    between atoms: _706  and  _708
REMARK  286  A    between atoms: _708  and  _709
REMARK  287  A    between atoms: _708  and  _711
REMARK  288  A    between atoms: _711  and  _712
REMARK  289  A    between atoms: _715  and  _717
REMARK  290  A    between atoms: _717  and  _718
REMARK  291  A    between atoms: _717  and  _720
REMARK  292  A    between atoms: _723  and  _725
REMARK  293  A    between atoms: _725  and  _726
REMARK  294  A    between atoms: _725  and  _728
REMARK  295  A    between atoms: _728  and  _729
REMARK  296  A    between atoms: _729  and  _730
REMARK  297  A    between atoms: _730  and  _731
REMARK  298  A    between atoms: _731  and  _732
REMARK  299  A    between atoms: _736  and  _738
REMARK  300  A    between atoms: _738  and  _739
REMARK  301  A    between atoms: _738  and  _741
REMARK  302  A    between atoms: _741  and  _742
REMARK  303  A    between atoms: _742  and  _743
REMARK  304  A    between atoms: _743  and  _744
REMARK  305  A    between atoms: _753  and  _755
REMARK  306  A    between atoms: _755  and  _756
REMARK  307  A    between atoms: _755  and  _758
REMARK  308  A    between atoms: _758  and  _759
REMARK  309  A    between atoms: _762  and  _764
REMARK  310  A    between atoms: _764  and  _765
REMARK  311  A    between atoms: _764  and  _767
REMARK  312  A    between atoms: _767  and  _768
REMARK  313  A    between atoms: _768  and  _769
REMARK  314  A    between atoms: _772  and  _774
REMARK  315  A    between atoms: _774  and  _775
REMARK  316  A    between atoms: _774  and  _777
REMARK  317  A    between atoms: _777  and  _778
REMARK  318  A    between atoms: _788  and  _790
REMARK  319  A    between atoms: _790  and  _791
REMARK  320  A    between atoms: _790  and  _793
REMARK  321  A    between atoms: _793  and  _794
REMARK  322  A    between atoms: _797  and  _799
REMARK  323  A    between atoms: _799  and  _800
REMARK  324  A    between atoms: _799  and  _802
REMARK  325  A    between atoms: _802  and  _803
REMARK  326  A    between atoms: _806  and  _808
REMARK  327  A    between atoms: _808  and  _809
REMARK  328  A    between atoms: _811  and  _813
REMARK  329  A    between atoms: _813  and  _814
REMARK  330  A    between atoms: _813  and  _816
REMARK  331  A    between atoms: _816  and  _817
REMARK  332  A    between atoms: _820  and  _822
REMARK  333  A    between atoms: _822  and  _823
REMARK  334  A    between atoms: _822  and  _825
REMARK  335  A    between atoms: _825  and  _826
REMARK  336  A    between atoms: _826  and  _827
REMARK  337  A    between atoms: _827  and  _828
REMARK  338  A    between atoms: _828  and  _829
REMARK  339  A    between atoms: _834  and  _835
REMARK  340  A    between atoms: _840  and  _842
REMARK  341  A    between atoms: _842  and  _843
REMARK  342  A    between atoms: _842  and  _845
REMARK  343  A    between atoms: _848  and  _850
REMARK  344  A    between atoms: _850  and  _851
REMARK  345  A    between atoms: _854  and  _856
REMARK  346  A    between atoms: _856  and  _857
REMARK  347  A    between atoms: _856  and  _859
REMARK  348  A    between atoms: _859  and  _860
REMARK  349  A    between atoms: _860  and  _861
REMARK  350  A    between atoms: _864  and  _866
REMARK  351  A    between atoms: _866  and  _867
REMARK  352  A    between atoms: _866  and  _869
REMARK  353  A    between atoms: _872  and  _874
REMARK  354  A    between atoms: _874  and  _875
REMARK  355  A    between atoms: _874  and  _877
REMARK  356  A    between atoms: _877  and  _878
REMARK  357  A    between atoms: _878  and  _879
REMARK  358  A    between atoms: _879  and  _880
REMARK                            x       y       z     vdW  Elec       q    Type
REMARK                         _______ _______ _______ _____ _____    ______ ____
ROOT
ATOM      1  O   HOH     1     -27.842  23.829 -31.976  0.00  0.00    +0.000 OA
ENDROOT
TORSDOF 0
