REMARK  Name = ../refined-set-2016/1siv/1siv_pocket.pdb
REMARK  217 active torsions:
REMARK  status: ('A' for Active; 'I' for Inactive)
REMARK    1  A    between atoms: _1  and  _3
REMARK    2  A    between atoms: _3  and  _4
REMARK    3  A    between atoms: _3  and  _6
REMARK    4  A    between atoms: _6  and  _7
REMARK    5  A    between atoms: _7  and  _8
REMARK    6  A    between atoms: _8  and  _9
REMARK    7  A    between atoms: _18  and  _20
REMARK    8  A    between atoms: _20  and  _21
REMARK    9  A    between atoms: _20  and  _23
REMARK   10  A    between atoms: _23  and  _24
REMARK   11  A    between atoms: _27  and  _29
REMARK   12  A    between atoms: _29  and  _30
REMARK   13  A    between atoms: _29  and  _32
REMARK   14  A    between atoms: _32  and  _33
REMARK   15  A    between atoms: _36  and  _38
REMARK   16  A    between atoms: _38  and  _39
REMARK   17  A    between atoms: _38  and  _41
REMARK   18  A    between atoms: _41  and  _42
REMARK   19  A    between atoms: _45  and  _47
REMARK   20  A    between atoms: _47  and  _48
REMARK   21  A    between atoms: _47  and  _50
REMARK   22  A    between atoms: _50  and  _51
REMARK   23  A    between atoms: _54  and  _56
REMARK   24  A    between atoms: _56  and  _57
REMARK   25  A    between atoms: _59  and  _61
REMARK   26  A    between atoms: _61  and  _62
REMARK   27  A    between atoms: _65  and  _67
REMARK   28  A    between atoms: _67  and  _68
REMARK   29  A    between atoms: _67  and  _70
REMARK   30  A    between atoms: _70  and  _71
REMARK   31  A    between atoms: _74  and  _76
REMARK   32  A    between atoms: _76  and  _77
REMARK   33  A    between atoms: _76  and  _79
REMARK   34  A    between atoms: _79  and  _80
REMARK   35  A    between atoms: _83  and  _85
REMARK   36  A    between atoms: _85  and  _86
REMARK   37  A    between atoms: _85  and  _88
REMARK   38  A    between atoms: _88  and  _89
REMARK   39  A    between atoms: _91  and  _93
REMARK   40  A    between atoms: _93  and  _94
REMARK   41  A    between atoms: _93  and  _96
REMARK   42  A    between atoms: _96  and  _97
REMARK   43  A    between atoms: _100  and  _102
REMARK   44  A    between atoms: _102  and  _103
REMARK   45  A    between atoms: _102  and  _105
REMARK   46  A    between atoms: _105  and  _106
REMARK   47  A    between atoms: _106  and  _107
REMARK   48  A    between atoms: _107  and  _108
REMARK   49  A    between atoms: _108  and  _109
REMARK   50  A    between atoms: _113  and  _115
REMARK   51  A    between atoms: _115  and  _116
REMARK   52  A    between atoms: _115  and  _118
REMARK   53  A    between atoms: _118  and  _119
REMARK   54  A    between atoms: _122  and  _124
REMARK   55  A    between atoms: _124  and  _125
REMARK   56  A    between atoms: _124  and  _127
REMARK   57  A    between atoms: _130  and  _132
REMARK   58  A    between atoms: _132  and  _133
REMARK   59  A    between atoms: _135  and  _137
REMARK   60  A    between atoms: _137  and  _138
REMARK   61  A    between atoms: _140  and  _142
REMARK   62  A    between atoms: _142  and  _143
REMARK   63  A    between atoms: _142  and  _145
REMARK   64  A    between atoms: _145  and  _146
REMARK   65  A    between atoms: _149  and  _151
REMARK   66  A    between atoms: _151  and  _152
REMARK   67  A    between atoms: _154  and  _156
REMARK   68  A    between atoms: _156  and  _157
REMARK   69  A    between atoms: _159  and  _161
REMARK   70  A    between atoms: _161  and  _162
REMARK   71  A    between atoms: _161  and  _164
REMARK   72  A    between atoms: _164  and  _165
REMARK   73  A    between atoms: _171  and  _173
REMARK   74  A    between atoms: _173  and  _174
REMARK   75  A    between atoms: _173  and  _176
REMARK   76  A    between atoms: _176  and  _177
REMARK   77  A    between atoms: _180  and  _182
REMARK   78  A    between atoms: _182  and  _183
REMARK   79  A    between atoms: _182  and  _185
REMARK   80  A    between atoms: _185  and  _186
REMARK   81  A    between atoms: _189  and  _191
REMARK   82  A    between atoms: _191  and  _192
REMARK   83  A    between atoms: _191  and  _194
REMARK   84  A    between atoms: _194  and  _195
REMARK   85  A    between atoms: _195  and  _196
REMARK   86  A    between atoms: _198  and  _200
REMARK   87  A    between atoms: _200  and  _201
REMARK   88  A    between atoms: _200  and  _203
REMARK   89  A    between atoms: _203  and  _204
REMARK   90  A    between atoms: _208  and  _209
REMARK   91  A    between atoms: _214  and  _216
REMARK   92  A    between atoms: _216  and  _217
REMARK   93  A    between atoms: _216  and  _219
REMARK   94  A    between atoms: _219  and  _220
REMARK   95  A    between atoms: _223  and  _225
REMARK   96  A    between atoms: _225  and  _226
REMARK   97  A    between atoms: _225  and  _228
REMARK   98  A    between atoms: _228  and  _229
REMARK   99  A    between atoms: _234  and  _236
REMARK  100  A    between atoms: _236  and  _237
REMARK  101  A    between atoms: _236  and  _239
REMARK  102  A    between atoms: _239  and  _240
REMARK  103  A    between atoms: _243  and  _245
REMARK  104  A    between atoms: _245  and  _246
REMARK  105  A    between atoms: _248  and  _250
REMARK  106  A    between atoms: _250  and  _251
REMARK  107  A    between atoms: _250  and  _253
REMARK  108  A    between atoms: _253  and  _254
REMARK  109  A    between atoms: _254  and  _255
REMARK  110  A    between atoms: _255  and  _256
REMARK  111  A    between atoms: _265  and  _267
REMARK  112  A    between atoms: _267  and  _268
REMARK  113  A    between atoms: _267  and  _270
REMARK  114  A    between atoms: _270  and  _271
REMARK  115  A    between atoms: _271  and  _272
REMARK  116  A    between atoms: _272  and  _273
REMARK  117  A    between atoms: _282  and  _284
REMARK  118  A    between atoms: _284  and  _285
REMARK  119  A    between atoms: _284  and  _287
REMARK  120  A    between atoms: _287  and  _288
REMARK  121  A    between atoms: _291  and  _293
REMARK  122  A    between atoms: _293  and  _294
REMARK  123  A    between atoms: _293  and  _296
REMARK  124  A    between atoms: _296  and  _297
REMARK  125  A    between atoms: _300  and  _302
REMARK  126  A    between atoms: _302  and  _303
REMARK  127  A    between atoms: _302  and  _305
REMARK  128  A    between atoms: _305  and  _306
REMARK  129  A    between atoms: _309  and  _311
REMARK  130  A    between atoms: _311  and  _312
REMARK  131  A    between atoms: _311  and  _314
REMARK  132  A    between atoms: _314  and  _315
REMARK  133  A    between atoms: _318  and  _320
REMARK  134  A    between atoms: _320  and  _321
REMARK  135  A    between atoms: _323  and  _325
REMARK  136  A    between atoms: _325  and  _326
REMARK  137  A    between atoms: _329  and  _331
REMARK  138  A    between atoms: _331  and  _332
REMARK  139  A    between atoms: _331  and  _334
REMARK  140  A    between atoms: _334  and  _335
REMARK  141  A    between atoms: _338  and  _340
REMARK  142  A    between atoms: _340  and  _341
REMARK  143  A    between atoms: _340  and  _343
REMARK  144  A    between atoms: _343  and  _344
REMARK  145  A    between atoms: _347  and  _349
REMARK  146  A    between atoms: _349  and  _350
REMARK  147  A    between atoms: _349  and  _352
REMARK  148  A    between atoms: _352  and  _353
REMARK  149  A    between atoms: _355  and  _357
REMARK  150  A    between atoms: _357  and  _358
REMARK  151  A    between atoms: _357  and  _360
REMARK  152  A    between atoms: _360  and  _361
REMARK  153  A    between atoms: _364  and  _366
REMARK  154  A    between atoms: _366  and  _367
REMARK  155  A    between atoms: _366  and  _369
REMARK  156  A    between atoms: _369  and  _370
REMARK  157  A    between atoms: _373  and  _375
REMARK  158  A    between atoms: _375  and  _376
REMARK  159  A    between atoms: _375  and  _378
REMARK  160  A    between atoms: _381  and  _383
REMARK  161  A    between atoms: _383  and  _384
REMARK  162  A    between atoms: _386  and  _388
REMARK  163  A    between atoms: _388  and  _389
REMARK  164  A    between atoms: _391  and  _393
REMARK  165  A    between atoms: _393  and  _394
REMARK  166  A    between atoms: _393  and  _396
REMARK  167  A    between atoms: _396  and  _397
REMARK  168  A    between atoms: _400  and  _402
REMARK  169  A    between atoms: _402  and  _403
REMARK  170  A    between atoms: _405  and  _407
REMARK  171  A    between atoms: _407  and  _408
REMARK  172  A    between atoms: _410  and  _412
REMARK  173  A    between atoms: _412  and  _413
REMARK  174  A    between atoms: _412  and  _415
REMARK  175  A    between atoms: _415  and  _416
REMARK  176  A    between atoms: _422  and  _424
REMARK  177  A    between atoms: _424  and  _425
REMARK  178  A    between atoms: _424  and  _427
REMARK  179  A    between atoms: _427  and  _428
REMARK  180  A    between atoms: _431  and  _433
REMARK  181  A    between atoms: _433  and  _434
REMARK  182  A    between atoms: _433  and  _436
REMARK  183  A    between atoms: _436  and  _437
REMARK  184  A    between atoms: _437  and  _438
REMARK  185  A    between atoms: _440  and  _442
REMARK  186  A    between atoms: _442  and  _443
REMARK  187  A    between atoms: _442  and  _445
REMARK  188  A    between atoms: _445  and  _446
REMARK  189  A    between atoms: _450  and  _451
REMARK  190  A    between atoms: _456  and  _458
REMARK  191  A    between atoms: _458  and  _459
REMARK  192  A    between atoms: _458  and  _461
REMARK  193  A    between atoms: _461  and  _462
REMARK  194  A    between atoms: _465  and  _467
REMARK  195  A    between atoms: _467  and  _468
REMARK  196  A    between atoms: _467  and  _470
REMARK  197  A    between atoms: _470  and  _471
REMARK  198  A    between atoms: _476  and  _478
REMARK  199  A    between atoms: _478  and  _479
REMARK  200  A    between atoms: _478  and  _481
REMARK  201  A    between atoms: _481  and  _482
REMARK  202  A    between atoms: _485  and  _487
REMARK  203  A    between atoms: _487  and  _488
REMARK  204  A    between atoms: _487  and  _490
REMARK  205  A    between atoms: _490  and  _491
REMARK  206  A    between atoms: _497  and  _499
REMARK  207  A    between atoms: _499  and  _500
REMARK  208  A    between atoms: _502  and  _504
REMARK  209  A    between atoms: _504  and  _505
REMARK  210  A    between atoms: _504  and  _507
REMARK  211  A    between atoms: _507  and  _508
REMARK  212  A    between atoms: _508  and  _509
REMARK  213  A    between atoms: _509  and  _510
REMARK  214  A    between atoms: _519  and  _521
REMARK  215  A    between atoms: _521  and  _522
REMARK  216  A    between atoms: _521  and  _524
REMARK  217  A    between atoms: _524  and  _525
REMARK                            x       y       z     vdW  Elec       q    Type
REMARK                         _______ _______ _______ _____ _____    ______ ____
ROOT
ATOM      1  NE  ARG A   1      10.340  18.904  36.407  0.00  0.00    -0.265 N 
ATOM      2  HE  ARG A   1       9.341  19.115  36.210  0.00  0.00    +0.259 HD
ATOM      3  CZ  ARG A   1      10.918  17.886  35.791  0.00  0.00    +0.342 C 
ATOM      4  NH2 ARG A   1      12.182  17.573  36.008  0.00  0.00    -0.292 N 
ATOM      5 HH21 ARG A   1      12.749  18.132  36.677  0.00  0.00    +0.255 HD
ATOM      6 HH22 ARG A   1      12.611  16.767  35.510  0.00  0.00    +0.255 HD
ATOM      7  NH1 ARG A   1      10.205  17.149  34.966  0.00  0.00    -0.292 N 
ATOM      8 HH11 ARG A   1       9.202  17.370  34.806  0.00  0.00    +0.255 HD
ATOM      9 HH12 ARG A   1      10.645  16.345  34.474  0.00  0.00    +0.255 HD
ENDROOT
BRANCH   1  10
ATOM     10  CD  ARG A   1      11.062  19.731  37.347  0.00  0.00    +0.174 C 
BRANCH  10  11
ATOM     11  CG  ARG A   1      10.190  20.871  37.748  0.00  0.00    +0.045 C 
BRANCH  11  12
ATOM     12  CB  ARG A   1      10.892  21.603  38.845  0.00  0.00    +0.029 C 
BRANCH  12  13
ATOM     13  CA  ARG A   1      10.159  22.884  39.191  0.00  0.00    +0.133 C 
BRANCH  13  14
ATOM     14  N   ARG A   1      10.441  23.986  38.263  0.00  0.00    -0.239 NA
ATOM     15  H   ARG A   1      11.016  23.797  37.417  0.00  0.00    +0.142 HD
ENDBRANCH  13  14
BRANCH  13  16
ATOM     16  C   ARG A   1      10.672  23.281  40.555  0.00  0.00    +0.224 C 
ATOM     17  O   ARG A   1      11.800  23.749  40.606  0.00  0.00    -0.287 OA
ENDBRANCH  13  16
ENDBRANCH  12  13
ENDBRANCH  11  12
ENDBRANCH  10  11
ENDBRANCH   1  10
TORSDOF 6
REMARK  Name = ../refined-set-2016/1siv/1siv_pocket.pdb
REMARK  217 active torsions:
REMARK  status: ('A' for Active; 'I' for Inactive)
REMARK    1  A    between atoms: _1  and  _3
REMARK    2  A    between atoms: _3  and  _4
REMARK    3  A    between atoms: _3  and  _6
REMARK    4  A    between atoms: _6  and  _7
REMARK    5  A    between atoms: _7  and  _8
REMARK    6  A    between atoms: _8  and  _9
REMARK    7  A    between atoms: _18  and  _20
REMARK    8  A    between atoms: _20  and  _21
REMARK    9  A    between atoms: _20  and  _23
REMARK   10  A    between atoms: _23  and  _24
REMARK   11  A    between atoms: _27  and  _29
REMARK   12  A    between atoms: _29  and  _30
REMARK   13  A    between atoms: _29  and  _32
REMARK   14  A    between atoms: _32  and  _33
REMARK   15  A    between atoms: _36  and  _38
REMARK   16  A    between atoms: _38  and  _39
REMARK   17  A    between atoms: _38  and  _41
REMARK   18  A    between atoms: _41  and  _42
REMARK   19  A    between atoms: _45  and  _47
REMARK   20  A    between atoms: _47  and  _48
REMARK   21  A    between atoms: _47  and  _50
REMARK   22  A    between atoms: _50  and  _51
REMARK   23  A    between atoms: _54  and  _56
REMARK   24  A    between atoms: _56  and  _57
REMARK   25  A    between atoms: _59  and  _61
REMARK   26  A    between atoms: _61  and  _62
REMARK   27  A    between atoms: _65  and  _67
REMARK   28  A    between atoms: _67  and  _68
REMARK   29  A    between atoms: _67  and  _70
REMARK   30  A    between atoms: _70  and  _71
REMARK   31  A    between atoms: _74  and  _76
REMARK   32  A    between atoms: _76  and  _77
REMARK   33  A    between atoms: _76  and  _79
REMARK   34  A    between atoms: _79  and  _80
REMARK   35  A    between atoms: _83  and  _85
REMARK   36  A    between atoms: _85  and  _86
REMARK   37  A    between atoms: _85  and  _88
REMARK   38  A    between atoms: _88  and  _89
REMARK   39  A    between atoms: _91  and  _93
REMARK   40  A    between atoms: _93  and  _94
REMARK   41  A    between atoms: _93  and  _96
REMARK   42  A    between atoms: _96  and  _97
REMARK   43  A    between atoms: _100  and  _102
REMARK   44  A    between atoms: _102  and  _103
REMARK   45  A    between atoms: _102  and  _105
REMARK   46  A    between atoms: _105  and  _106
REMARK   47  A    between atoms: _106  and  _107
REMARK   48  A    between atoms: _107  and  _108
REMARK   49  A    between atoms: _108  and  _109
REMARK   50  A    between atoms: _113  and  _115
REMARK   51  A    between atoms: _115  and  _116
REMARK   52  A    between atoms: _115  and  _118
REMARK   53  A    between atoms: _118  and  _119
REMARK   54  A    between atoms: _122  and  _124
REMARK   55  A    between atoms: _124  and  _125
REMARK   56  A    between atoms: _124  and  _127
REMARK   57  A    between atoms: _130  and  _132
REMARK   58  A    between atoms: _132  and  _133
REMARK   59  A    between atoms: _135  and  _137
REMARK   60  A    between atoms: _137  and  _138
REMARK   61  A    between atoms: _140  and  _142
REMARK   62  A    between atoms: _142  and  _143
REMARK   63  A    between atoms: _142  and  _145
REMARK   64  A    between atoms: _145  and  _146
REMARK   65  A    between atoms: _149  and  _151
REMARK   66  A    between atoms: _151  and  _152
REMARK   67  A    between atoms: _154  and  _156
REMARK   68  A    between atoms: _156  and  _157
REMARK   69  A    between atoms: _159  and  _161
REMARK   70  A    between atoms: _161  and  _162
REMARK   71  A    between atoms: _161  and  _164
REMARK   72  A    between atoms: _164  and  _165
REMARK   73  A    between atoms: _171  and  _173
REMARK   74  A    between atoms: _173  and  _174
REMARK   75  A    between atoms: _173  and  _176
REMARK   76  A    between atoms: _176  and  _177
REMARK   77  A    between atoms: _180  and  _182
REMARK   78  A    between atoms: _182  and  _183
REMARK   79  A    between atoms: _182  and  _185
REMARK   80  A    between atoms: _185  and  _186
REMARK   81  A    between atoms: _189  and  _191
REMARK   82  A    between atoms: _191  and  _192
REMARK   83  A    between atoms: _191  and  _194
REMARK   84  A    between atoms: _194  and  _195
REMARK   85  A    between atoms: _195  and  _196
REMARK   86  A    between atoms: _198  and  _200
REMARK   87  A    between atoms: _200  and  _201
REMARK   88  A    between atoms: _200  and  _203
REMARK   89  A    between atoms: _203  and  _204
REMARK   90  A    between atoms: _208  and  _209
REMARK   91  A    between atoms: _214  and  _216
REMARK   92  A    between atoms: _216  and  _217
REMARK   93  A    between atoms: _216  and  _219
REMARK   94  A    between atoms: _219  and  _220
REMARK   95  A    between atoms: _223  and  _225
REMARK   96  A    between atoms: _225  and  _226
REMARK   97  A    between atoms: _225  and  _228
REMARK   98  A    between atoms: _228  and  _229
REMARK   99  A    between atoms: _234  and  _236
REMARK  100  A    between atoms: _236  and  _237
REMARK  101  A    between atoms: _236  and  _239
REMARK  102  A    between atoms: _239  and  _240
REMARK  103  A    between atoms: _243  and  _245
REMARK  104  A    between atoms: _245  and  _246
REMARK  105  A    between atoms: _248  and  _250
REMARK  106  A    between atoms: _250  and  _251
REMARK  107  A    between atoms: _250  and  _253
REMARK  108  A    between atoms: _253  and  _254
REMARK  109  A    between atoms: _254  and  _255
REMARK  110  A    between atoms: _255  and  _256
REMARK  111  A    between atoms: _265  and  _267
REMARK  112  A    between atoms: _267  and  _268
REMARK  113  A    between atoms: _267  and  _270
REMARK  114  A    between atoms: _270  and  _271
REMARK  115  A    between atoms: _271  and  _272
REMARK  116  A    between atoms: _272  and  _273
REMARK  117  A    between atoms: _282  and  _284
REMARK  118  A    between atoms: _284  and  _285
REMARK  119  A    between atoms: _284  and  _287
REMARK  120  A    between atoms: _287  and  _288
REMARK  121  A    between atoms: _291  and  _293
REMARK  122  A    between atoms: _293  and  _294
REMARK  123  A    between atoms: _293  and  _296
REMARK  124  A    between atoms: _296  and  _297
REMARK  125  A    between atoms: _300  and  _302
REMARK  126  A    between atoms: _302  and  _303
REMARK  127  A    between atoms: _302  and  _305
REMARK  128  A    between atoms: _305  and  _306
REMARK  129  A    between atoms: _309  and  _311
REMARK  130  A    between atoms: _311  and  _312
REMARK  131  A    between atoms: _311  and  _314
REMARK  132  A    between atoms: _314  and  _315
REMARK  133  A    between atoms: _318  and  _320
REMARK  134  A    between atoms: _320  and  _321
REMARK  135  A    between atoms: _323  and  _325
REMARK  136  A    between atoms: _325  and  _326
REMARK  137  A    between atoms: _329  and  _331
REMARK  138  A    between atoms: _331  and  _332
REMARK  139  A    between atoms: _331  and  _334
REMARK  140  A    between atoms: _334  and  _335
REMARK  141  A    between atoms: _338  and  _340
REMARK  142  A    between atoms: _340  and  _341
REMARK  143  A    between atoms: _340  and  _343
REMARK  144  A    between atoms: _343  and  _344
REMARK  145  A    between atoms: _347  and  _349
REMARK  146  A    between atoms: _349  and  _350
REMARK  147  A    between atoms: _349  and  _352
REMARK  148  A    between atoms: _352  and  _353
REMARK  149  A    between atoms: _355  and  _357
REMARK  150  A    between atoms: _357  and  _358
REMARK  151  A    between atoms: _357  and  _360
REMARK  152  A    between atoms: _360  and  _361
REMARK  153  A    between atoms: _364  and  _366
REMARK  154  A    between atoms: _366  and  _367
REMARK  155  A    between atoms: _366  and  _369
REMARK  156  A    between atoms: _369  and  _370
REMARK  157  A    between atoms: _373  and  _375
REMARK  158  A    between atoms: _375  and  _376
REMARK  159  A    between atoms: _375  and  _378
REMARK  160  A    between atoms: _381  and  _383
REMARK  161  A    between atoms: _383  and  _384
REMARK  162  A    between atoms: _386  and  _388
REMARK  163  A    between atoms: _388  and  _389
REMARK  164  A    between atoms: _391  and  _393
REMARK  165  A    between atoms: _393  and  _394
REMARK  166  A    between atoms: _393  and  _396
REMARK  167  A    between atoms: _396  and  _397
REMARK  168  A    between atoms: _400  and  _402
REMARK  169  A    between atoms: _402  and  _403
REMARK  170  A    between atoms: _405  and  _407
REMARK  171  A    between atoms: _407  and  _408
REMARK  172  A    between atoms: _410  and  _412
REMARK  173  A    between atoms: _412  and  _413
REMARK  174  A    between atoms: _412  and  _415
REMARK  175  A    between atoms: _415  and  _416
REMARK  176  A    between atoms: _422  and  _424
REMARK  177  A    between atoms: _424  and  _425
REMARK  178  A    between atoms: _424  and  _427
REMARK  179  A    between atoms: _427  and  _428
REMARK  180  A    between atoms: _431  and  _433
REMARK  181  A    between atoms: _433  and  _434
REMARK  182  A    between atoms: _433  and  _436
REMARK  183  A    between atoms: _436  and  _437
REMARK  184  A    between atoms: _437  and  _438
REMARK  185  A    between atoms: _440  and  _442
REMARK  186  A    between atoms: _442  and  _443
REMARK  187  A    between atoms: _442  and  _445
REMARK  188  A    between atoms: _445  and  _446
REMARK  189  A    between atoms: _450  and  _451
REMARK  190  A    between atoms: _456  and  _458
REMARK  191  A    between atoms: _458  and  _459
REMARK  192  A    between atoms: _458  and  _461
REMARK  193  A    between atoms: _461  and  _462
REMARK  194  A    between atoms: _465  and  _467
REMARK  195  A    between atoms: _467  and  _468
REMARK  196  A    between atoms: _467  and  _470
REMARK  197  A    between atoms: _470  and  _471
REMARK  198  A    between atoms: _476  and  _478
REMARK  199  A    between atoms: _478  and  _479
REMARK  200  A    between atoms: _478  and  _481
REMARK  201  A    between atoms: _481  and  _482
REMARK  202  A    between atoms: _485  and  _487
REMARK  203  A    between atoms: _487  and  _488
REMARK  204  A    between atoms: _487  and  _490
REMARK  205  A    between atoms: _490  and  _491
REMARK  206  A    between atoms: _497  and  _499
REMARK  207  A    between atoms: _499  and  _500
REMARK  208  A    between atoms: _502  and  _504
REMARK  209  A    between atoms: _504  and  _505
REMARK  210  A    between atoms: _504  and  _507
REMARK  211  A    between atoms: _507  and  _508
REMARK  212  A    between atoms: _508  and  _509
REMARK  213  A    between atoms: _509  and  _510
REMARK  214  A    between atoms: _519  and  _521
REMARK  215  A    between atoms: _521  and  _522
REMARK  216  A    between atoms: _521  and  _524
REMARK  217  A    between atoms: _524  and  _525
REMARK                            x       y       z     vdW  Elec       q    Type
REMARK                         _______ _______ _______ _____ _____    ______ ____
ROOT
ATOM      1  C   GLY A   5       1.089  14.319  44.553  0.00  0.00    +0.243 C 
ATOM      2  N   ALA A   6       2.093  14.218  45.420  0.00  0.00    -0.297 N 
ATOM      3  H   ALA A   6       2.528  15.090  45.783  0.00  0.00    +0.150 HD
ATOM      4  O   GLY A   5       0.569  13.318  44.094  0.00  0.00    -0.273 OA
ENDROOT
BRANCH   2   5
ATOM      5  CA  ALA A   6       2.600  12.956  45.874  0.00  0.00    +0.149 C 
ATOM      6  CB  ALA A   6       4.099  12.961  45.841  0.00  0.00    +0.031 C 
BRANCH   5   7
ATOM      7  C   ALA A   6       2.183  12.629  47.293  0.00  0.00    +0.241 C 
ATOM      8  O   ALA A   6       2.375  13.450  48.198  0.00  0.00    -0.273 OA
ATOM      9  N   ASP A   7       1.585  11.472  47.548  0.00  0.00    -0.297 N 
ATOM     10  H   ASP A   7       1.386  10.811  46.771  0.00  0.00    +0.150 HD
BRANCH   9  11
ATOM     11  CA  ASP A   7       1.206  11.123  48.912  0.00  0.00    +0.160 C 
BRANCH  11  12
ATOM     12  C   ASP A   7       2.422  10.705  49.689  0.00  0.00    +0.241 C 
ATOM     13  O   ASP A   7       2.531  10.976  50.879  0.00  0.00    -0.273 OA
ATOM     14  N   ASP A   8       3.391  10.083  49.024  0.00  0.00    -0.297 N 
ATOM     15  H   ASP A   8       3.295   9.920  48.001  0.00  0.00    +0.150 HD
BRANCH  14  16
ATOM     16  CA  ASP A   8       4.581   9.631  49.719  0.00  0.00    +0.160 C 
BRANCH  16  17
ATOM     17  C   ASP A   8       5.833  10.283  49.158  0.00  0.00    +0.241 C 
ATOM     18  N   SER A   9       6.990   9.991  49.734  0.00  0.00    -0.295 N 
ATOM     19  H   SER A   9       6.988   9.331  50.538  0.00  0.00    +0.150 HD
ATOM     20  O   ASP A   8       5.738  11.045  48.202  0.00  0.00    -0.273 OA
BRANCH  18  21
ATOM     21  CA  SER A   9       8.259  10.543  49.302  0.00  0.00    +0.178 C 
BRANCH  21  22
ATOM     22  C   SER A   9       9.068   9.377  48.780  0.00  0.00    +0.243 C 
ATOM     23  O   SER A   9       9.312   8.455  49.545  0.00  0.00    -0.273 OA
ATOM     24  N   ILE A  10       9.476   9.345  47.517  0.00  0.00    -0.298 N 
ATOM     25  H   ILE A  10       9.238  10.149  46.902  0.00  0.00    +0.150 HD
BRANCH  24  26
ATOM     26  CA  ILE A  10      10.244   8.235  46.945  0.00  0.00    +0.137 C 
BRANCH  26  27
ATOM     27  CB  ILE A  10       9.575   7.608  45.678  0.00  0.00    +0.026 C 
ATOM     28  CG2 ILE A  10      10.332   6.307  45.376  0.00  0.00    +0.002 C 
BRANCH  27  29
ATOM     29  CG1 ILE A  10       8.133   7.217  45.877  0.00  0.00    +0.002 C 
ATOM     30  CD1 ILE A  10       7.143   8.372  45.912  0.00  0.00    +0.000 C 
ENDBRANCH  27  29
ENDBRANCH  26  27
BRANCH  26  31
ATOM     31  C   ILE A  10      11.579   8.825  46.526  0.00  0.00    +0.227 C 
ATOM     32  O   ILE A  10      11.625   9.882  45.901  0.00  0.00    -0.286 OA
ENDBRANCH  26  31
ENDBRANCH  24  26
ENDBRANCH  21  22
BRANCH  21  33
ATOM     33  CB  SER A   9       8.961  11.199  50.492  0.00  0.00    +0.166 C 
BRANCH  33  34
ATOM     34  OG  SER A   9       8.156  12.200  51.106  0.00  0.00    -0.380 OA
ATOM     35  H   SER A   9       8.648  12.596  51.868  0.00  0.00    +0.211 HD
ENDBRANCH  33  34
ENDBRANCH  21  33
ENDBRANCH  18  21
ENDBRANCH  16  17
BRANCH  16  36
ATOM     36  CB  ASP A   8       4.623   8.108  49.582  0.00  0.00    +0.143 C 
BRANCH  36  37
ATOM     37  CG  ASP A   8       3.285   7.450  49.878  0.00  0.00    +0.367 C 
ATOM     38  OD2 ASP A   8       2.878   7.476  51.023  0.00  0.00    -0.246 OA
ATOM     39  OD1 ASP A   8       2.606   6.963  48.975  0.00  0.00    -0.246 OA
ENDBRANCH  36  37
ENDBRANCH  16  36
ENDBRANCH  14  16
ENDBRANCH  11  12
BRANCH  11  40
ATOM     40  CB  ASP A   7       0.294   9.934  49.074  0.00  0.00    +0.143 C 
BRANCH  40  41
ATOM     41  CG  ASP A   7      -1.097  10.097  48.550  0.00  0.00    +0.367 C 
ATOM     42  OD2 ASP A   7      -1.738   9.090  48.355  0.00  0.00    -0.246 OA
ATOM     43  OD1 ASP A   7      -1.561  11.192  48.311  0.00  0.00    -0.246 OA
ENDBRANCH  40  41
ENDBRANCH  11  40
ENDBRANCH   9  11
ENDBRANCH   5   7
ENDBRANCH   2   5
BRANCH   1  44
ATOM     44  CA  GLY A   5       0.589  15.661  44.084  0.00  0.00    +0.176 C 
BRANCH  44  47
ATOM     45  C   THR A   4       1.016  17.271  45.845  0.00  0.00    +0.243 C 
ATOM     46  O   THR A   4      -0.005  16.954  46.438  0.00  0.00    -0.273 OA
ATOM     47  N   GLY A   5       1.360  16.710  44.692  0.00  0.00    -0.295 N 
ATOM     48  H   GLY A   5       2.220  17.042  44.211  0.00  0.00    +0.150 HD
BRANCH  45  49
ATOM     49  CA  THR A   4       1.935  18.367  46.362  0.00  0.00    +0.176 C 
BRANCH  49  52
ATOM     50  C   ASP A   3       4.170  17.467  45.911  0.00  0.00    +0.241 C 
ATOM     51  O   ASP A   3       3.949  16.512  46.654  0.00  0.00    -0.273 OA
ATOM     52  N   THR A   4       3.223  18.380  45.694  0.00  0.00    -0.295 N 
ATOM     53  H   THR A   4       3.417  19.140  45.011  0.00  0.00    +0.150 HD
BRANCH  50  54
ATOM     54  CA  ASP A   3       5.482  17.538  45.152  0.00  0.00    +0.160 C 
BRANCH  54  56
ATOM     55  C   LEU A   2       7.268  19.041  45.573  0.00  0.00    +0.241 C 
ATOM     56  N   ASP A   3       6.675  17.906  45.844  0.00  0.00    -0.297 N 
ATOM     57  H   ASP A   3       7.074  17.271  46.565  0.00  0.00    +0.150 HD
ATOM     58  O   LEU A   2       6.772  19.845  44.771  0.00  0.00    -0.273 OA
BRANCH  55  59
ATOM     59  CA  LEU A   2       8.550  19.295  46.347  0.00  0.00    +0.149 C 
BRANCH  59  62
ATOM     60  C   LEU A   1      10.096  17.937  45.039  0.00  0.00    +0.238 C 
ATOM     61  O   LEU A   1       9.728  16.903  45.610  0.00  0.00    -0.274 OA
ATOM     62  N   LEU A   2       9.589  19.132  45.347  0.00  0.00    -0.297 N 
ATOM     63  H   LEU A   2       9.950  19.974  44.855  0.00  0.00    +0.150 HD
BRANCH  60  64
ATOM     64  CA  LEU A   1      11.164  17.863  43.953  0.00  0.00    +0.145 C 
BRANCH  64  65
ATOM     65  N   LEU A   1      12.239  17.032  44.408  0.00  0.00    -0.238 NA
ATOM     66  H   LEU A   1      12.218  16.010  44.215  0.00  0.00    +0.142 HD
ENDBRANCH  64  65
BRANCH  64  67
ATOM     67  CB  LEU A   1      10.514  17.300  42.673  0.00  0.00    +0.026 C 
BRANCH  67  68
ATOM     68  CG  LEU A   1       9.310  18.030  42.016  0.00  0.00    +0.002 C 
ATOM     69  CD2 LEU A   1       9.704  19.393  41.577  0.00  0.00    +0.000 C 
ATOM     70  CD1 LEU A   1       8.874  17.314  40.758  0.00  0.00    +0.000 C 
ENDBRANCH  67  68
ENDBRANCH  64  67
ENDBRANCH  60  64
ENDBRANCH  59  62
BRANCH  59  71
ATOM     71  CB  LEU A   2       8.581  20.704  46.934  0.00  0.00    +0.029 C 
BRANCH  71  72
ATOM     72  CG  LEU A   2       9.510  21.080  48.097  0.00  0.00    +0.002 C 
ATOM     73  CD2 LEU A   2      10.408  19.940  48.496  0.00  0.00    +0.000 C 
ATOM     74  CD1 LEU A   2      10.310  22.323  47.679  0.00  0.00    +0.000 C 
ENDBRANCH  71  72
ENDBRANCH  59  71
ENDBRANCH  55  59
ENDBRANCH  54  56
BRANCH  54  75
ATOM     75  CB  ASP A   3       5.906  16.219  44.469  0.00  0.00    +0.143 C 
BRANCH  75  76
ATOM     76  CG  ASP A   3       5.011  15.576  43.428  0.00  0.00    +0.367 C 
ATOM     77  OD2 ASP A   3       3.939  16.061  43.120  0.00  0.00    -0.246 OA
ATOM     78  OD1 ASP A   3       5.378  14.548  42.909  0.00  0.00    -0.246 OA
ENDBRANCH  75  76
ENDBRANCH  54  75
ENDBRANCH  50  54
ENDBRANCH  49  52
BRANCH  49  79
ATOM     79  CB  THR A   4       1.217  19.717  46.194  0.00  0.00    +0.137 C 
ATOM     80  CG2 THR A   4       1.930  20.795  46.947  0.00  0.00    +0.034 C 
BRANCH  79  81
ATOM     81  OG1 THR A   4       1.137  20.016  44.812  0.00  0.00    -0.382 OA
ATOM     82  HG1 THR A   4       0.629  19.303  44.350  0.00  0.00    +0.210 HD
ENDBRANCH  79  81
ENDBRANCH  49  79
ENDBRANCH  45  49
ENDBRANCH  44  47
ENDBRANCH   1  44
TORSDOF 36
REMARK  Name = ../refined-set-2016/1siv/1siv_pocket.pdb
REMARK  217 active torsions:
REMARK  status: ('A' for Active; 'I' for Inactive)
REMARK    1  A    between atoms: _1  and  _3
REMARK    2  A    between atoms: _3  and  _4
REMARK    3  A    between atoms: _3  and  _6
REMARK    4  A    between atoms: _6  and  _7
REMARK    5  A    between atoms: _7  and  _8
REMARK    6  A    between atoms: _8  and  _9
REMARK    7  A    between atoms: _18  and  _20
REMARK    8  A    between atoms: _20  and  _21
REMARK    9  A    between atoms: _20  and  _23
REMARK   10  A    between atoms: _23  and  _24
REMARK   11  A    between atoms: _27  and  _29
REMARK   12  A    between atoms: _29  and  _30
REMARK   13  A    between atoms: _29  and  _32
REMARK   14  A    between atoms: _32  and  _33
REMARK   15  A    between atoms: _36  and  _38
REMARK   16  A    between atoms: _38  and  _39
REMARK   17  A    between atoms: _38  and  _41
REMARK   18  A    between atoms: _41  and  _42
REMARK   19  A    between atoms: _45  and  _47
REMARK   20  A    between atoms: _47  and  _48
REMARK   21  A    between atoms: _47  and  _50
REMARK   22  A    between atoms: _50  and  _51
REMARK   23  A    between atoms: _54  and  _56
REMARK   24  A    between atoms: _56  and  _57
REMARK   25  A    between atoms: _59  and  _61
REMARK   26  A    between atoms: _61  and  _62
REMARK   27  A    between atoms: _65  and  _67
REMARK   28  A    between atoms: _67  and  _68
REMARK   29  A    between atoms: _67  and  _70
REMARK   30  A    between atoms: _70  and  _71
REMARK   31  A    between atoms: _74  and  _76
REMARK   32  A    between atoms: _76  and  _77
REMARK   33  A    between atoms: _76  and  _79
REMARK   34  A    between atoms: _79  and  _80
REMARK   35  A    between atoms: _83  and  _85
REMARK   36  A    between atoms: _85  and  _86
REMARK   37  A    between atoms: _85  and  _88
REMARK   38  A    between atoms: _88  and  _89
REMARK   39  A    between atoms: _91  and  _93
REMARK   40  A    between atoms: _93  and  _94
REMARK   41  A    between atoms: _93  and  _96
REMARK   42  A    between atoms: _96  and  _97
REMARK   43  A    between atoms: _100  and  _102
REMARK   44  A    between atoms: _102  and  _103
REMARK   45  A    between atoms: _102  and  _105
REMARK   46  A    between atoms: _105  and  _106
REMARK   47  A    between atoms: _106  and  _107
REMARK   48  A    between atoms: _107  and  _108
REMARK   49  A    between atoms: _108  and  _109
REMARK   50  A    between atoms: _113  and  _115
REMARK   51  A    between atoms: _115  and  _116
REMARK   52  A    between atoms: _115  and  _118
REMARK   53  A    between atoms: _118  and  _119
REMARK   54  A    between atoms: _122  and  _124
REMARK   55  A    between atoms: _124  and  _125
REMARK   56  A    between atoms: _124  and  _127
REMARK   57  A    between atoms: _130  and  _132
REMARK   58  A    between atoms: _132  and  _133
REMARK   59  A    between atoms: _135  and  _137
REMARK   60  A    between atoms: _137  and  _138
REMARK   61  A    between atoms: _140  and  _142
REMARK   62  A    between atoms: _142  and  _143
REMARK   63  A    between atoms: _142  and  _145
REMARK   64  A    between atoms: _145  and  _146
REMARK   65  A    between atoms: _149  and  _151
REMARK   66  A    between atoms: _151  and  _152
REMARK   67  A    between atoms: _154  and  _156
REMARK   68  A    between atoms: _156  and  _157
REMARK   69  A    between atoms: _159  and  _161
REMARK   70  A    between atoms: _161  and  _162
REMARK   71  A    between atoms: _161  and  _164
REMARK   72  A    between atoms: _164  and  _165
REMARK   73  A    between atoms: _171  and  _173
REMARK   74  A    between atoms: _173  and  _174
REMARK   75  A    between atoms: _173  and  _176
REMARK   76  A    between atoms: _176  and  _177
REMARK   77  A    between atoms: _180  and  _182
REMARK   78  A    between atoms: _182  and  _183
REMARK   79  A    between atoms: _182  and  _185
REMARK   80  A    between atoms: _185  and  _186
REMARK   81  A    between atoms: _189  and  _191
REMARK   82  A    between atoms: _191  and  _192
REMARK   83  A    between atoms: _191  and  _194
REMARK   84  A    between atoms: _194  and  _195
REMARK   85  A    between atoms: _195  and  _196
REMARK   86  A    between atoms: _198  and  _200
REMARK   87  A    between atoms: _200  and  _201
REMARK   88  A    between atoms: _200  and  _203
REMARK   89  A    between atoms: _203  and  _204
REMARK   90  A    between atoms: _208  and  _209
REMARK   91  A    between atoms: _214  and  _216
REMARK   92  A    between atoms: _216  and  _217
REMARK   93  A    between atoms: _216  and  _219
REMARK   94  A    between atoms: _219  and  _220
REMARK   95  A    between atoms: _223  and  _225
REMARK   96  A    between atoms: _225  and  _226
REMARK   97  A    between atoms: _225  and  _228
REMARK   98  A    between atoms: _228  and  _229
REMARK   99  A    between atoms: _234  and  _236
REMARK  100  A    between atoms: _236  and  _237
REMARK  101  A    between atoms: _236  and  _239
REMARK  102  A    between atoms: _239  and  _240
REMARK  103  A    between atoms: _243  and  _245
REMARK  104  A    between atoms: _245  and  _246
REMARK  105  A    between atoms: _248  and  _250
REMARK  106  A    between atoms: _250  and  _251
REMARK  107  A    between atoms: _250  and  _253
REMARK  108  A    between atoms: _253  and  _254
REMARK  109  A    between atoms: _254  and  _255
REMARK  110  A    between atoms: _255  and  _256
REMARK  111  A    between atoms: _265  and  _267
REMARK  112  A    between atoms: _267  and  _268
REMARK  113  A    between atoms: _267  and  _270
REMARK  114  A    between atoms: _270  and  _271
REMARK  115  A    between atoms: _271  and  _272
REMARK  116  A    between atoms: _272  and  _273
REMARK  117  A    between atoms: _282  and  _284
REMARK  118  A    between atoms: _284  and  _285
REMARK  119  A    between atoms: _284  and  _287
REMARK  120  A    between atoms: _287  and  _288
REMARK  121  A    between atoms: _291  and  _293
REMARK  122  A    between atoms: _293  and  _294
REMARK  123  A    between atoms: _293  and  _296
REMARK  124  A    between atoms: _296  and  _297
REMARK  125  A    between atoms: _300  and  _302
REMARK  126  A    between atoms: _302  and  _303
REMARK  127  A    between atoms: _302  and  _305
REMARK  128  A    between atoms: _305  and  _306
REMARK  129  A    between atoms: _309  and  _311
REMARK  130  A    between atoms: _311  and  _312
REMARK  131  A    between atoms: _311  and  _314
REMARK  132  A    between atoms: _314  and  _315
REMARK  133  A    between atoms: _318  and  _320
REMARK  134  A    between atoms: _320  and  _321
REMARK  135  A    between atoms: _323  and  _325
REMARK  136  A    between atoms: _325  and  _326
REMARK  137  A    between atoms: _329  and  _331
REMARK  138  A    between atoms: _331  and  _332
REMARK  139  A    between atoms: _331  and  _334
REMARK  140  A    between atoms: _334  and  _335
REMARK  141  A    between atoms: _338  and  _340
REMARK  142  A    between atoms: _340  and  _341
REMARK  143  A    between atoms: _340  and  _343
REMARK  144  A    between atoms: _343  and  _344
REMARK  145  A    between atoms: _347  and  _349
REMARK  146  A    between atoms: _349  and  _350
REMARK  147  A    between atoms: _349  and  _352
REMARK  148  A    between atoms: _352  and  _353
REMARK  149  A    between atoms: _355  and  _357
REMARK  150  A    between atoms: _357  and  _358
REMARK  151  A    between atoms: _357  and  _360
REMARK  152  A    between atoms: _360  and  _361
REMARK  153  A    between atoms: _364  and  _366
REMARK  154  A    between atoms: _366  and  _367
REMARK  155  A    between atoms: _366  and  _369
REMARK  156  A    between atoms: _369  and  _370
REMARK  157  A    between atoms: _373  and  _375
REMARK  158  A    between atoms: _375  and  _376
REMARK  159  A    between atoms: _375  and  _378
REMARK  160  A    between atoms: _381  and  _383
REMARK  161  A    between atoms: _383  and  _384
REMARK  162  A    between atoms: _386  and  _388
REMARK  163  A    between atoms: _388  and  _389
REMARK  164  A    between atoms: _391  and  _393
REMARK  165  A    between atoms: _393  and  _394
REMARK  166  A    between atoms: _393  and  _396
REMARK  167  A    between atoms: _396  and  _397
REMARK  168  A    between atoms: _400  and  _402
REMARK  169  A    between atoms: _402  and  _403
REMARK  170  A    between atoms: _405  and  _407
REMARK  171  A    between atoms: _407  and  _408
REMARK  172  A    between atoms: _410  and  _412
REMARK  173  A    between atoms: _412  and  _413
REMARK  174  A    between atoms: _412  and  _415
REMARK  175  A    between atoms: _415  and  _416
REMARK  176  A    between atoms: _422  and  _424
REMARK  177  A    between atoms: _424  and  _425
REMARK  178  A    between atoms: _424  and  _427
REMARK  179  A    between atoms: _427  and  _428
REMARK  180  A    between atoms: _431  and  _433
REMARK  181  A    between atoms: _433  and  _434
REMARK  182  A    between atoms: _433  and  _436
REMARK  183  A    between atoms: _436  and  _437
REMARK  184  A    between atoms: _437  and  _438
REMARK  185  A    between atoms: _440  and  _442
REMARK  186  A    between atoms: _442  and  _443
REMARK  187  A    between atoms: _442  and  _445
REMARK  188  A    between atoms: _445  and  _446
REMARK  189  A    between atoms: _450  and  _451
REMARK  190  A    between atoms: _456  and  _458
REMARK  191  A    between atoms: _458  and  _459
REMARK  192  A    between atoms: _458  and  _461
REMARK  193  A    between atoms: _461  and  _462
REMARK  194  A    between atoms: _465  and  _467
REMARK  195  A    between atoms: _467  and  _468
REMARK  196  A    between atoms: _467  and  _470
REMARK  197  A    between atoms: _470  and  _471
REMARK  198  A    between atoms: _476  and  _478
REMARK  199  A    between atoms: _478  and  _479
REMARK  200  A    between atoms: _478  and  _481
REMARK  201  A    between atoms: _481  and  _482
REMARK  202  A    between atoms: _485  and  _487
REMARK  203  A    between atoms: _487  and  _488
REMARK  204  A    between atoms: _487  and  _490
REMARK  205  A    between atoms: _490  and  _491
REMARK  206  A    between atoms: _497  and  _499
REMARK  207  A    between atoms: _499  and  _500
REMARK  208  A    between atoms: _502  and  _504
REMARK  209  A    between atoms: _504  and  _505
REMARK  210  A    between atoms: _504  and  _507
REMARK  211  A    between atoms: _507  and  _508
REMARK  212  A    between atoms: _508  and  _509
REMARK  213  A    between atoms: _509  and  _510
REMARK  214  A    between atoms: _519  and  _521
REMARK  215  A    between atoms: _521  and  _522
REMARK  216  A    between atoms: _521  and  _524
REMARK  217  A    between atoms: _524  and  _525
REMARK                            x       y       z     vdW  Elec       q    Type
REMARK                         _______ _______ _______ _____ _____    ______ ____
ROOT
ATOM      1  C   GLY A   5       0.534   6.882  37.727  0.00  0.00    +0.243 C 
ATOM      2  O   GLY A   5      -0.015   5.887  37.255  0.00  0.00    -0.273 OA
ATOM      3  N   ILE A   6       0.920   7.896  36.962  0.00  0.00    -0.297 N 
ATOM      4  H   ILE A   6       1.301   8.736  37.443  0.00  0.00    +0.150 HD
ENDROOT
BRANCH   3   5
ATOM      5  CA  ILE A   6       0.855   7.935  35.494  0.00  0.00    +0.149 C 
BRANCH   5   6
ATOM      6  C   ILE A   6       1.813   6.844  35.104  0.00  0.00    +0.241 C 
ATOM      7  O   ILE A   6       2.924   6.871  35.644  0.00  0.00    -0.273 OA
ATOM      8  N   GLY A   7       1.484   5.915  34.228  0.00  0.00    -0.295 N 
ATOM      9  H   GLY A   7       0.526   5.854  33.828  0.00  0.00    +0.150 HD
BRANCH   8  10
ATOM     10  CA  GLY A   7       2.531   4.983  33.853  0.00  0.00    +0.176 C 
BRANCH  10  11
ATOM     11  C   GLY A   7       2.346   3.675  34.572  0.00  0.00    +0.243 C 
ATOM     12  N   GLY A   8       2.059   3.631  35.866  0.00  0.00    -0.295 N 
ATOM     13  H   GLY A   8       2.076   4.504  36.431  0.00  0.00    +0.150 HD
ATOM     14  O   GLY A   7       2.440   2.640  33.921  0.00  0.00    -0.273 OA
BRANCH  12  15
ATOM     15  CA  GLY A   8       1.721   2.366  36.498  0.00  0.00    +0.176 C 
BRANCH  15  16
ATOM     16  C   GLY A   8       2.117   2.417  37.940  0.00  0.00    +0.243 C 
ATOM     17  O   GLY A   8       1.989   3.466  38.571  0.00  0.00    -0.273 OA
ATOM     18  N   PHE A   9       2.583   1.304  38.465  0.00  0.00    -0.297 N 
ATOM     19  H   PHE A   9       2.669   0.449  37.879  0.00  0.00    +0.150 HD
BRANCH  18  20
ATOM     20  CA  PHE A   9       2.975   1.268  39.855  0.00  0.00    +0.153 C 
BRANCH  20  21
ATOM     21  C   PHE A   9       4.415   0.780  39.934  0.00  0.00    +0.241 C 
ATOM     22  N   ILE A  10       5.130   1.015  41.029  0.00  0.00    -0.298 N 
ATOM     23  H   ILE A  10       4.702   1.556  41.807  0.00  0.00    +0.150 HD
ATOM     24  O   PHE A   9       4.910   0.207  38.954  0.00  0.00    -0.273 OA
BRANCH  22  25
ATOM     25  CA  ILE A  10       6.503   0.533  41.168  0.00  0.00    +0.137 C 
BRANCH  25  26
ATOM     26  C   ILE A  10       6.538  -0.043  42.557  0.00  0.00    +0.227 C 
ATOM     27  O   ILE A  10       5.652   0.243  43.386  0.00  0.00    -0.286 OA
ENDBRANCH  25  26
BRANCH  25  28
ATOM     28  CB  ILE A  10       7.628   1.614  41.077  0.00  0.00    +0.026 C 
ATOM     29  CG2 ILE A  10       7.765   1.928  39.602  0.00  0.00    +0.002 C 
BRANCH  28  30
ATOM     30  CG1 ILE A  10       7.373   2.852  41.869  0.00  0.00    +0.002 C 
ATOM     31  CD1 ILE A  10       8.670   3.641  42.062  0.00  0.00    +0.000 C 
ENDBRANCH  28  30
ENDBRANCH  25  28
ENDBRANCH  22  25
ENDBRANCH  20  21
BRANCH  20  32
ATOM     32  CB  PHE A   9       2.062   0.311  40.661  0.00  0.00    +0.055 C 
BRANCH  32  33
ATOM     33  CG  PHE A   9       2.236  -1.179  40.441  0.00  0.00    -0.020 A 
ATOM     34  CD2 PHE A   9       3.151  -1.880  41.203  0.00  0.00    -0.004 A 
ATOM     35  CE2 PHE A   9       3.309  -3.249  41.030  0.00  0.00    -0.000 A 
ATOM     36  CZ  PHE A   9       2.541  -3.927  40.069  0.00  0.00    -0.000 A 
ATOM     37  CE1 PHE A   9       1.626  -3.204  39.301  0.00  0.00    -0.000 A 
ATOM     38  CD1 PHE A   9       1.476  -1.835  39.489  0.00  0.00    -0.004 A 
ENDBRANCH  32  33
ENDBRANCH  20  32
ENDBRANCH  18  20
ENDBRANCH  15  16
ENDBRANCH  12  15
ENDBRANCH  10  11
ENDBRANCH   8  10
ENDBRANCH   5   6
BRANCH   5  39
ATOM     39  CB  ILE A   6       1.382   9.345  34.961  0.00  0.00    +0.027 C 
ATOM     40  CG2 ILE A   6       1.958   9.267  33.519  0.00  0.00    +0.002 C 
BRANCH  39  41
ATOM     41  CG1 ILE A   6       0.247  10.343  35.117  0.00  0.00    +0.002 C 
ATOM     42  CD1 ILE A   6      -0.721  10.232  33.942  0.00  0.00    +0.000 C 
ENDBRANCH  39  41
ENDBRANCH   5  39
ENDBRANCH   3   5
BRANCH   1  43
ATOM     43  CA  GLY A   5       0.743   7.027  39.222  0.00  0.00    +0.176 C 
BRANCH  43  46
ATOM     44  C   GLY A   4       1.123   5.509  41.096  0.00  0.00    +0.243 C 
ATOM     45  O   GLY A   4       1.103   6.430  41.904  0.00  0.00    -0.273 OA
ATOM     46  N   GLY A   5       0.957   5.718  39.800  0.00  0.00    -0.295 N 
ATOM     47  H   GLY A   5       0.982   4.897  39.162  0.00  0.00    +0.150 HD
BRANCH  44  48
ATOM     48  CA  GLY A   4       1.328   4.087  41.569  0.00  0.00    +0.176 C 
BRANCH  48  50
ATOM     49  C   VAL A   3       2.709   3.326  43.368  0.00  0.00    +0.241 C 
ATOM     50  N   GLY A   4       1.666   4.017  42.973  0.00  0.00    -0.295 N 
ATOM     51  H   GLY A   4       1.080   4.516  43.672  0.00  0.00    +0.150 HD
ATOM     52  O   VAL A   3       3.441   2.781  42.521  0.00  0.00    -0.273 OA
BRANCH  49  53
ATOM     53  CA  VAL A   3       2.983   3.213  44.859  0.00  0.00    +0.149 C 
BRANCH  53  56
ATOM     54  C   ILE A   2       3.212   1.036  45.952  0.00  0.00    +0.241 C 
ATOM     55  O   ILE A   2       2.481   1.428  46.862  0.00  0.00    -0.273 OA
ATOM     56  N   VAL A   3       3.596   1.879  45.001  0.00  0.00    -0.297 N 
ATOM     57  H   VAL A   3       4.347   1.592  44.341  0.00  0.00    +0.150 HD
BRANCH  54  58
ATOM     58  CA  ILE A   2       3.770  -0.367  46.089  0.00  0.00    +0.148 C 
BRANCH  58  60
ATOM     59  C   LYS A   1       5.091  -1.112  47.991  0.00  0.00    +0.238 C 
ATOM     60  N   ILE A   2       3.981  -0.601  47.517  0.00  0.00    -0.297 N 
ATOM     61  H   ILE A   2       3.221  -0.352  48.182  0.00  0.00    +0.150 HD
ATOM     62  O   LYS A   1       6.029  -1.394  47.246  0.00  0.00    -0.274 OA
BRANCH  59  63
ATOM     63  CA  LYS A   1       5.180  -1.296  49.489  0.00  0.00    +0.145 C 
BRANCH  63  64
ATOM     64  N   LYS A   1       6.405  -2.037  49.654  0.00  0.00    -0.238 NA
ATOM     65  H   LYS A   1       7.187  -1.870  48.988  0.00  0.00    +0.142 HD
ENDBRANCH  63  64
BRANCH  63  66
ATOM     66  CB  LYS A   1       5.380   0.013  50.247  0.00  0.00    +0.026 C 
BRANCH  66  67
ATOM     67  CG  LYS A   1       4.399   0.500  51.275  0.00  0.00    -0.000 C 
BRANCH  67  68
ATOM     68  CD  LYS A   1       4.319  -0.353  52.501  0.00  0.00    -0.024 C 
BRANCH  68  69
ATOM     69  CE  LYS A   1       3.222   0.180  53.453  0.00  0.00    -0.086 C 
BRANCH  69  70
ATOM     70  NZ  LYS A   1       3.420   1.568  53.867  0.00  0.00    +0.380 N 
ATOM     71  HZ1 LYS A   1       2.647   1.853  54.502  0.00  0.00    -0.089 HD
ATOM     72  HZ2 LYS A   1       4.329   1.654  54.365  0.00  0.00    -0.089 HD
ATOM     73  HZ3 LYS A   1       3.424   2.182  53.027  0.00  0.00    -0.089 HD
ENDBRANCH  69  70
ENDBRANCH  68  69
ENDBRANCH  67  68
ENDBRANCH  66  67
ENDBRANCH  63  66
ENDBRANCH  59  63
ENDBRANCH  58  60
BRANCH  58  74
ATOM     74  CB  ILE A   2       2.768  -1.478  45.561  0.00  0.00    +0.027 C 
ATOM     75  CG2 ILE A   2       1.375  -1.165  45.090  0.00  0.00    +0.002 C 
BRANCH  74  76
ATOM     76  CG1 ILE A   2       3.401  -1.861  44.334  0.00  0.00    +0.002 C 
ATOM     77  CD1 ILE A   2       4.314  -3.039  44.555  0.00  0.00    +0.000 C 
ENDBRANCH  74  76
ENDBRANCH  58  74
ENDBRANCH  54  58
ENDBRANCH  53  56
BRANCH  53  78
ATOM     78  CB  VAL A   3       3.843   4.459  45.219  0.00  0.00    +0.027 C 
ATOM     79  CG2 VAL A   3       3.742   4.726  46.716  0.00  0.00    +0.002 C 
ATOM     80  CG1 VAL A   3       5.280   4.285  44.779  0.00  0.00    +0.002 C 
ENDBRANCH  53  78
ENDBRANCH  49  53
ENDBRANCH  48  50
ENDBRANCH  44  48
ENDBRANCH  43  46
ENDBRANCH   1  43
TORSDOF 34
REMARK  Name = ../refined-set-2016/1siv/1siv_pocket.pdb
REMARK  217 active torsions:
REMARK  status: ('A' for Active; 'I' for Inactive)
REMARK    1  A    between atoms: _1  and  _3
REMARK    2  A    between atoms: _3  and  _4
REMARK    3  A    between atoms: _3  and  _6
REMARK    4  A    between atoms: _6  and  _7
REMARK    5  A    between atoms: _7  and  _8
REMARK    6  A    between atoms: _8  and  _9
REMARK    7  A    between atoms: _18  and  _20
REMARK    8  A    between atoms: _20  and  _21
REMARK    9  A    between atoms: _20  and  _23
REMARK   10  A    between atoms: _23  and  _24
REMARK   11  A    between atoms: _27  and  _29
REMARK   12  A    between atoms: _29  and  _30
REMARK   13  A    between atoms: _29  and  _32
REMARK   14  A    between atoms: _32  and  _33
REMARK   15  A    between atoms: _36  and  _38
REMARK   16  A    between atoms: _38  and  _39
REMARK   17  A    between atoms: _38  and  _41
REMARK   18  A    between atoms: _41  and  _42
REMARK   19  A    between atoms: _45  and  _47
REMARK   20  A    between atoms: _47  and  _48
REMARK   21  A    between atoms: _47  and  _50
REMARK   22  A    between atoms: _50  and  _51
REMARK   23  A    between atoms: _54  and  _56
REMARK   24  A    between atoms: _56  and  _57
REMARK   25  A    between atoms: _59  and  _61
REMARK   26  A    between atoms: _61  and  _62
REMARK   27  A    between atoms: _65  and  _67
REMARK   28  A    between atoms: _67  and  _68
REMARK   29  A    between atoms: _67  and  _70
REMARK   30  A    between atoms: _70  and  _71
REMARK   31  A    between atoms: _74  and  _76
REMARK   32  A    between atoms: _76  and  _77
REMARK   33  A    between atoms: _76  and  _79
REMARK   34  A    between atoms: _79  and  _80
REMARK   35  A    between atoms: _83  and  _85
REMARK   36  A    between atoms: _85  and  _86
REMARK   37  A    between atoms: _85  and  _88
REMARK   38  A    between atoms: _88  and  _89
REMARK   39  A    between atoms: _91  and  _93
REMARK   40  A    between atoms: _93  and  _94
REMARK   41  A    between atoms: _93  and  _96
REMARK   42  A    between atoms: _96  and  _97
REMARK   43  A    between atoms: _100  and  _102
REMARK   44  A    between atoms: _102  and  _103
REMARK   45  A    between atoms: _102  and  _105
REMARK   46  A    between atoms: _105  and  _106
REMARK   47  A    between atoms: _106  and  _107
REMARK   48  A    between atoms: _107  and  _108
REMARK   49  A    between atoms: _108  and  _109
REMARK   50  A    between atoms: _113  and  _115
REMARK   51  A    between atoms: _115  and  _116
REMARK   52  A    between atoms: _115  and  _118
REMARK   53  A    between atoms: _118  and  _119
REMARK   54  A    between atoms: _122  and  _124
REMARK   55  A    between atoms: _124  and  _125
REMARK   56  A    between atoms: _124  and  _127
REMARK   57  A    between atoms: _130  and  _132
REMARK   58  A    between atoms: _132  and  _133
REMARK   59  A    between atoms: _135  and  _137
REMARK   60  A    between atoms: _137  and  _138
REMARK   61  A    between atoms: _140  and  _142
REMARK   62  A    between atoms: _142  and  _143
REMARK   63  A    between atoms: _142  and  _145
REMARK   64  A    between atoms: _145  and  _146
REMARK   65  A    between atoms: _149  and  _151
REMARK   66  A    between atoms: _151  and  _152
REMARK   67  A    between atoms: _154  and  _156
REMARK   68  A    between atoms: _156  and  _157
REMARK   69  A    between atoms: _159  and  _161
REMARK   70  A    between atoms: _161  and  _162
REMARK   71  A    between atoms: _161  and  _164
REMARK   72  A    between atoms: _164  and  _165
REMARK   73  A    between atoms: _171  and  _173
REMARK   74  A    between atoms: _173  and  _174
REMARK   75  A    between atoms: _173  and  _176
REMARK   76  A    between atoms: _176  and  _177
REMARK   77  A    between atoms: _180  and  _182
REMARK   78  A    between atoms: _182  and  _183
REMARK   79  A    between atoms: _182  and  _185
REMARK   80  A    between atoms: _185  and  _186
REMARK   81  A    between atoms: _189  and  _191
REMARK   82  A    between atoms: _191  and  _192
REMARK   83  A    between atoms: _191  and  _194
REMARK   84  A    between atoms: _194  and  _195
REMARK   85  A    between atoms: _195  and  _196
REMARK   86  A    between atoms: _198  and  _200
REMARK   87  A    between atoms: _200  and  _201
REMARK   88  A    between atoms: _200  and  _203
REMARK   89  A    between atoms: _203  and  _204
REMARK   90  A    between atoms: _208  and  _209
REMARK   91  A    between atoms: _214  and  _216
REMARK   92  A    between atoms: _216  and  _217
REMARK   93  A    between atoms: _216  and  _219
REMARK   94  A    between atoms: _219  and  _220
REMARK   95  A    between atoms: _223  and  _225
REMARK   96  A    between atoms: _225  and  _226
REMARK   97  A    between atoms: _225  and  _228
REMARK   98  A    between atoms: _228  and  _229
REMARK   99  A    between atoms: _234  and  _236
REMARK  100  A    between atoms: _236  and  _237
REMARK  101  A    between atoms: _236  and  _239
REMARK  102  A    between atoms: _239  and  _240
REMARK  103  A    between atoms: _243  and  _245
REMARK  104  A    between atoms: _245  and  _246
REMARK  105  A    between atoms: _248  and  _250
REMARK  106  A    between atoms: _250  and  _251
REMARK  107  A    between atoms: _250  and  _253
REMARK  108  A    between atoms: _253  and  _254
REMARK  109  A    between atoms: _254  and  _255
REMARK  110  A    between atoms: _255  and  _256
REMARK  111  A    between atoms: _265  and  _267
REMARK  112  A    between atoms: _267  and  _268
REMARK  113  A    between atoms: _267  and  _270
REMARK  114  A    between atoms: _270  and  _271
REMARK  115  A    between atoms: _271  and  _272
REMARK  116  A    between atoms: _272  and  _273
REMARK  117  A    between atoms: _282  and  _284
REMARK  118  A    between atoms: _284  and  _285
REMARK  119  A    between atoms: _284  and  _287
REMARK  120  A    between atoms: _287  and  _288
REMARK  121  A    between atoms: _291  and  _293
REMARK  122  A    between atoms: _293  and  _294
REMARK  123  A    between atoms: _293  and  _296
REMARK  124  A    between atoms: _296  and  _297
REMARK  125  A    between atoms: _300  and  _302
REMARK  126  A    between atoms: _302  and  _303
REMARK  127  A    between atoms: _302  and  _305
REMARK  128  A    between atoms: _305  and  _306
REMARK  129  A    between atoms: _309  and  _311
REMARK  130  A    between atoms: _311  and  _312
REMARK  131  A    between atoms: _311  and  _314
REMARK  132  A    between atoms: _314  and  _315
REMARK  133  A    between atoms: _318  and  _320
REMARK  134  A    between atoms: _320  and  _321
REMARK  135  A    between atoms: _323  and  _325
REMARK  136  A    between atoms: _325  and  _326
REMARK  137  A    between atoms: _329  and  _331
REMARK  138  A    between atoms: _331  and  _332
REMARK  139  A    between atoms: _331  and  _334
REMARK  140  A    between atoms: _334  and  _335
REMARK  141  A    between atoms: _338  and  _340
REMARK  142  A    between atoms: _340  and  _341
REMARK  143  A    between atoms: _340  and  _343
REMARK  144  A    between atoms: _343  and  _344
REMARK  145  A    between atoms: _347  and  _349
REMARK  146  A    between atoms: _349  and  _350
REMARK  147  A    between atoms: _349  and  _352
REMARK  148  A    between atoms: _352  and  _353
REMARK  149  A    between atoms: _355  and  _357
REMARK  150  A    between atoms: _357  and  _358
REMARK  151  A    between atoms: _357  and  _360
REMARK  152  A    between atoms: _360  and  _361
REMARK  153  A    between atoms: _364  and  _366
REMARK  154  A    between atoms: _366  and  _367
REMARK  155  A    between atoms: _366  and  _369
REMARK  156  A    between atoms: _369  and  _370
REMARK  157  A    between atoms: _373  and  _375
REMARK  158  A    between atoms: _375  and  _376
REMARK  159  A    between atoms: _375  and  _378
REMARK  160  A    between atoms: _381  and  _383
REMARK  161  A    between atoms: _383  and  _384
REMARK  162  A    between atoms: _386  and  _388
REMARK  163  A    between atoms: _388  and  _389
REMARK  164  A    between atoms: _391  and  _393
REMARK  165  A    between atoms: _393  and  _394
REMARK  166  A    between atoms: _393  and  _396
REMARK  167  A    between atoms: _396  and  _397
REMARK  168  A    between atoms: _400  and  _402
REMARK  169  A    between atoms: _402  and  _403
REMARK  170  A    between atoms: _405  and  _407
REMARK  171  A    between atoms: _407  and  _408
REMARK  172  A    between atoms: _410  and  _412
REMARK  173  A    between atoms: _412  and  _413
REMARK  174  A    between atoms: _412  and  _415
REMARK  175  A    between atoms: _415  and  _416
REMARK  176  A    between atoms: _422  and  _424
REMARK  177  A    between atoms: _424  and  _425
REMARK  178  A    between atoms: _424  and  _427
REMARK  179  A    between atoms: _427  and  _428
REMARK  180  A    between atoms: _431  and  _433
REMARK  181  A    between atoms: _433  and  _434
REMARK  182  A    between atoms: _433  and  _436
REMARK  183  A    between atoms: _436  and  _437
REMARK  184  A    between atoms: _437  and  _438
REMARK  185  A    between atoms: _440  and  _442
REMARK  186  A    between atoms: _442  and  _443
REMARK  187  A    between atoms: _442  and  _445
REMARK  188  A    between atoms: _445  and  _446
REMARK  189  A    between atoms: _450  and  _451
REMARK  190  A    between atoms: _456  and  _458
REMARK  191  A    between atoms: _458  and  _459
REMARK  192  A    between atoms: _458  and  _461
REMARK  193  A    between atoms: _461  and  _462
REMARK  194  A    between atoms: _465  and  _467
REMARK  195  A    between atoms: _467  and  _468
REMARK  196  A    between atoms: _467  and  _470
REMARK  197  A    between atoms: _470  and  _471
REMARK  198  A    between atoms: _476  and  _478
REMARK  199  A    between atoms: _478  and  _479
REMARK  200  A    between atoms: _478  and  _481
REMARK  201  A    between atoms: _481  and  _482
REMARK  202  A    between atoms: _485  and  _487
REMARK  203  A    between atoms: _487  and  _488
REMARK  204  A    between atoms: _487  and  _490
REMARK  205  A    between atoms: _490  and  _491
REMARK  206  A    between atoms: _497  and  _499
REMARK  207  A    between atoms: _499  and  _500
REMARK  208  A    between atoms: _502  and  _504
REMARK  209  A    between atoms: _504  and  _505
REMARK  210  A    between atoms: _504  and  _507
REMARK  211  A    between atoms: _507  and  _508
REMARK  212  A    between atoms: _508  and  _509
REMARK  213  A    between atoms: _509  and  _510
REMARK  214  A    between atoms: _519  and  _521
REMARK  215  A    between atoms: _521  and  _522
REMARK  216  A    between atoms: _521  and  _524
REMARK  217  A    between atoms: _524  and  _525
REMARK                            x       y       z     vdW  Elec       q    Type
REMARK                         _______ _______ _______ _____ _____    ______ ____
ROOT
ATOM      1  CA  THR A   1       9.258   0.502  46.943  0.00  0.00    +0.160 C 
ENDROOT
BRANCH   1   2
ATOM      2  N   THR A   1       8.400  -0.363  46.179  0.00  0.00    -0.237 NA
ATOM      3  H   THR A   1       7.582  -0.812  46.639  0.00  0.00    +0.142 HD
ENDBRANCH   1   2
BRANCH   1   4
ATOM      4  C   THR A   1       9.623  -0.161  48.253  0.00  0.00    +0.227 C 
ATOM      5  O   THR A   1       8.993  -1.123  48.705  0.00  0.00    -0.287 OA
ENDBRANCH   1   4
BRANCH   1   6
ATOM      6  CB  THR A   1       8.526   1.860  47.225  0.00  0.00    +0.134 C 
ATOM      7  CG2 THR A   1       8.120   2.564  45.899  0.00  0.00    +0.034 C 
BRANCH   6   8
ATOM      8  OG1 THR A   1       7.383   1.610  48.062  0.00  0.00    -0.383 OA
ATOM      9  HG1 THR A   1       6.767   0.987  47.600  0.00  0.00    +0.210 HD
ENDBRANCH   6   8
ENDBRANCH   1   6
TORSDOF 4
REMARK  Name = ../refined-set-2016/1siv/1siv_pocket.pdb
REMARK  217 active torsions:
REMARK  status: ('A' for Active; 'I' for Inactive)
REMARK    1  A    between atoms: _1  and  _3
REMARK    2  A    between atoms: _3  and  _4
REMARK    3  A    between atoms: _3  and  _6
REMARK    4  A    between atoms: _6  and  _7
REMARK    5  A    between atoms: _7  and  _8
REMARK    6  A    between atoms: _8  and  _9
REMARK    7  A    between atoms: _18  and  _20
REMARK    8  A    between atoms: _20  and  _21
REMARK    9  A    between atoms: _20  and  _23
REMARK   10  A    between atoms: _23  and  _24
REMARK   11  A    between atoms: _27  and  _29
REMARK   12  A    between atoms: _29  and  _30
REMARK   13  A    between atoms: _29  and  _32
REMARK   14  A    between atoms: _32  and  _33
REMARK   15  A    between atoms: _36  and  _38
REMARK   16  A    between atoms: _38  and  _39
REMARK   17  A    between atoms: _38  and  _41
REMARK   18  A    between atoms: _41  and  _42
REMARK   19  A    between atoms: _45  and  _47
REMARK   20  A    between atoms: _47  and  _48
REMARK   21  A    between atoms: _47  and  _50
REMARK   22  A    between atoms: _50  and  _51
REMARK   23  A    between atoms: _54  and  _56
REMARK   24  A    between atoms: _56  and  _57
REMARK   25  A    between atoms: _59  and  _61
REMARK   26  A    between atoms: _61  and  _62
REMARK   27  A    between atoms: _65  and  _67
REMARK   28  A    between atoms: _67  and  _68
REMARK   29  A    between atoms: _67  and  _70
REMARK   30  A    between atoms: _70  and  _71
REMARK   31  A    between atoms: _74  and  _76
REMARK   32  A    between atoms: _76  and  _77
REMARK   33  A    between atoms: _76  and  _79
REMARK   34  A    between atoms: _79  and  _80
REMARK   35  A    between atoms: _83  and  _85
REMARK   36  A    between atoms: _85  and  _86
REMARK   37  A    between atoms: _85  and  _88
REMARK   38  A    between atoms: _88  and  _89
REMARK   39  A    between atoms: _91  and  _93
REMARK   40  A    between atoms: _93  and  _94
REMARK   41  A    between atoms: _93  and  _96
REMARK   42  A    between atoms: _96  and  _97
REMARK   43  A    between atoms: _100  and  _102
REMARK   44  A    between atoms: _102  and  _103
REMARK   45  A    between atoms: _102  and  _105
REMARK   46  A    between atoms: _105  and  _106
REMARK   47  A    between atoms: _106  and  _107
REMARK   48  A    between atoms: _107  and  _108
REMARK   49  A    between atoms: _108  and  _109
REMARK   50  A    between atoms: _113  and  _115
REMARK   51  A    between atoms: _115  and  _116
REMARK   52  A    between atoms: _115  and  _118
REMARK   53  A    between atoms: _118  and  _119
REMARK   54  A    between atoms: _122  and  _124
REMARK   55  A    between atoms: _124  and  _125
REMARK   56  A    between atoms: _124  and  _127
REMARK   57  A    between atoms: _130  and  _132
REMARK   58  A    between atoms: _132  and  _133
REMARK   59  A    between atoms: _135  and  _137
REMARK   60  A    between atoms: _137  and  _138
REMARK   61  A    between atoms: _140  and  _142
REMARK   62  A    between atoms: _142  and  _143
REMARK   63  A    between atoms: _142  and  _145
REMARK   64  A    between atoms: _145  and  _146
REMARK   65  A    between atoms: _149  and  _151
REMARK   66  A    between atoms: _151  and  _152
REMARK   67  A    between atoms: _154  and  _156
REMARK   68  A    between atoms: _156  and  _157
REMARK   69  A    between atoms: _159  and  _161
REMARK   70  A    between atoms: _161  and  _162
REMARK   71  A    between atoms: _161  and  _164
REMARK   72  A    between atoms: _164  and  _165
REMARK   73  A    between atoms: _171  and  _173
REMARK   74  A    between atoms: _173  and  _174
REMARK   75  A    between atoms: _173  and  _176
REMARK   76  A    between atoms: _176  and  _177
REMARK   77  A    between atoms: _180  and  _182
REMARK   78  A    between atoms: _182  and  _183
REMARK   79  A    between atoms: _182  and  _185
REMARK   80  A    between atoms: _185  and  _186
REMARK   81  A    between atoms: _189  and  _191
REMARK   82  A    between atoms: _191  and  _192
REMARK   83  A    between atoms: _191  and  _194
REMARK   84  A    between atoms: _194  and  _195
REMARK   85  A    between atoms: _195  and  _196
REMARK   86  A    between atoms: _198  and  _200
REMARK   87  A    between atoms: _200  and  _201
REMARK   88  A    between atoms: _200  and  _203
REMARK   89  A    between atoms: _203  and  _204
REMARK   90  A    between atoms: _208  and  _209
REMARK   91  A    between atoms: _214  and  _216
REMARK   92  A    between atoms: _216  and  _217
REMARK   93  A    between atoms: _216  and  _219
REMARK   94  A    between atoms: _219  and  _220
REMARK   95  A    between atoms: _223  and  _225
REMARK   96  A    between atoms: _225  and  _226
REMARK   97  A    between atoms: _225  and  _228
REMARK   98  A    between atoms: _228  and  _229
REMARK   99  A    between atoms: _234  and  _236
REMARK  100  A    between atoms: _236  and  _237
REMARK  101  A    between atoms: _236  and  _239
REMARK  102  A    between atoms: _239  and  _240
REMARK  103  A    between atoms: _243  and  _245
REMARK  104  A    between atoms: _245  and  _246
REMARK  105  A    between atoms: _248  and  _250
REMARK  106  A    between atoms: _250  and  _251
REMARK  107  A    between atoms: _250  and  _253
REMARK  108  A    between atoms: _253  and  _254
REMARK  109  A    between atoms: _254  and  _255
REMARK  110  A    between atoms: _255  and  _256
REMARK  111  A    between atoms: _265  and  _267
REMARK  112  A    between atoms: _267  and  _268
REMARK  113  A    between atoms: _267  and  _270
REMARK  114  A    between atoms: _270  and  _271
REMARK  115  A    between atoms: _271  and  _272
REMARK  116  A    between atoms: _272  and  _273
REMARK  117  A    between atoms: _282  and  _284
REMARK  118  A    between atoms: _284  and  _285
REMARK  119  A    between atoms: _284  and  _287
REMARK  120  A    between atoms: _287  and  _288
REMARK  121  A    between atoms: _291  and  _293
REMARK  122  A    between atoms: _293  and  _294
REMARK  123  A    between atoms: _293  and  _296
REMARK  124  A    between atoms: _296  and  _297
REMARK  125  A    between atoms: _300  and  _302
REMARK  126  A    between atoms: _302  and  _303
REMARK  127  A    between atoms: _302  and  _305
REMARK  128  A    between atoms: _305  and  _306
REMARK  129  A    between atoms: _309  and  _311
REMARK  130  A    between atoms: _311  and  _312
REMARK  131  A    between atoms: _311  and  _314
REMARK  132  A    between atoms: _314  and  _315
REMARK  133  A    between atoms: _318  and  _320
REMARK  134  A    between atoms: _320  and  _321
REMARK  135  A    between atoms: _323  and  _325
REMARK  136  A    between atoms: _325  and  _326
REMARK  137  A    between atoms: _329  and  _331
REMARK  138  A    between atoms: _331  and  _332
REMARK  139  A    between atoms: _331  and  _334
REMARK  140  A    between atoms: _334  and  _335
REMARK  141  A    between atoms: _338  and  _340
REMARK  142  A    between atoms: _340  and  _341
REMARK  143  A    between atoms: _340  and  _343
REMARK  144  A    between atoms: _343  and  _344
REMARK  145  A    between atoms: _347  and  _349
REMARK  146  A    between atoms: _349  and  _350
REMARK  147  A    between atoms: _349  and  _352
REMARK  148  A    between atoms: _352  and  _353
REMARK  149  A    between atoms: _355  and  _357
REMARK  150  A    between atoms: _357  and  _358
REMARK  151  A    between atoms: _357  and  _360
REMARK  152  A    between atoms: _360  and  _361
REMARK  153  A    between atoms: _364  and  _366
REMARK  154  A    between atoms: _366  and  _367
REMARK  155  A    between atoms: _366  and  _369
REMARK  156  A    between atoms: _369  and  _370
REMARK  157  A    between atoms: _373  and  _375
REMARK  158  A    between atoms: _375  and  _376
REMARK  159  A    between atoms: _375  and  _378
REMARK  160  A    between atoms: _381  and  _383
REMARK  161  A    between atoms: _383  and  _384
REMARK  162  A    between atoms: _386  and  _388
REMARK  163  A    between atoms: _388  and  _389
REMARK  164  A    between atoms: _391  and  _393
REMARK  165  A    between atoms: _393  and  _394
REMARK  166  A    between atoms: _393  and  _396
REMARK  167  A    between atoms: _396  and  _397
REMARK  168  A    between atoms: _400  and  _402
REMARK  169  A    between atoms: _402  and  _403
REMARK  170  A    between atoms: _405  and  _407
REMARK  171  A    between atoms: _407  and  _408
REMARK  172  A    between atoms: _410  and  _412
REMARK  173  A    between atoms: _412  and  _413
REMARK  174  A    between atoms: _412  and  _415
REMARK  175  A    between atoms: _415  and  _416
REMARK  176  A    between atoms: _422  and  _424
REMARK  177  A    between atoms: _424  and  _425
REMARK  178  A    between atoms: _424  and  _427
REMARK  179  A    between atoms: _427  and  _428
REMARK  180  A    between atoms: _431  and  _433
REMARK  181  A    between atoms: _433  and  _434
REMARK  182  A    between atoms: _433  and  _436
REMARK  183  A    between atoms: _436  and  _437
REMARK  184  A    between atoms: _437  and  _438
REMARK  185  A    between atoms: _440  and  _442
REMARK  186  A    between atoms: _442  and  _443
REMARK  187  A    between atoms: _442  and  _445
REMARK  188  A    between atoms: _445  and  _446
REMARK  189  A    between atoms: _450  and  _451
REMARK  190  A    between atoms: _456  and  _458
REMARK  191  A    between atoms: _458  and  _459
REMARK  192  A    between atoms: _458  and  _461
REMARK  193  A    between atoms: _461  and  _462
REMARK  194  A    between atoms: _465  and  _467
REMARK  195  A    between atoms: _467  and  _468
REMARK  196  A    between atoms: _467  and  _470
REMARK  197  A    between atoms: _470  and  _471
REMARK  198  A    between atoms: _476  and  _478
REMARK  199  A    between atoms: _478  and  _479
REMARK  200  A    between atoms: _478  and  _481
REMARK  201  A    between atoms: _481  and  _482
REMARK  202  A    between atoms: _485  and  _487
REMARK  203  A    between atoms: _487  and  _488
REMARK  204  A    between atoms: _487  and  _490
REMARK  205  A    between atoms: _490  and  _491
REMARK  206  A    between atoms: _497  and  _499
REMARK  207  A    between atoms: _499  and  _500
REMARK  208  A    between atoms: _502  and  _504
REMARK  209  A    between atoms: _504  and  _505
REMARK  210  A    between atoms: _504  and  _507
REMARK  211  A    between atoms: _507  and  _508
REMARK  212  A    between atoms: _508  and  _509
REMARK  213  A    between atoms: _509  and  _510
REMARK  214  A    between atoms: _519  and  _521
REMARK  215  A    between atoms: _521  and  _522
REMARK  216  A    between atoms: _521  and  _524
REMARK  217  A    between atoms: _524  and  _525
REMARK                            x       y       z     vdW  Elec       q    Type
REMARK                         _______ _______ _______ _____ _____    ______ ____
ROOT
ATOM      1  CA  MET A   1      10.580   5.283  50.248  0.00  0.00    +0.134 C 
ENDROOT
BRANCH   1   2
ATOM      2  N   MET A   1      10.680   6.457  51.037  0.00  0.00    -0.239 NA
ATOM      3  H   MET A   1      10.550   7.376  50.569  0.00  0.00    +0.142 HD
ENDBRANCH   1   2
BRANCH   1   4
ATOM      4  C   MET A   1      11.727   5.373  49.268  0.00  0.00    +0.224 C 
ATOM      5  O   MET A   1      12.194   6.425  48.857  0.00  0.00    -0.287 OA
ENDBRANCH   1   4
BRANCH   1   6
ATOM      6  CB  MET A   1       9.273   5.262  49.553  0.00  0.00    +0.037 C 
BRANCH   6   7
ATOM      7  CG  MET A   1       8.253   4.842  50.602  0.00  0.00    +0.059 C 
BRANCH   7   8
ATOM      8  SD  MET A   1       6.714   4.604  49.722  0.00  0.00    -0.139 S 
ATOM      9  CE  MET A   1       5.521   4.227  50.974  0.00  0.00    +0.069 C 
ENDBRANCH   7   8
ENDBRANCH   6   7
ENDBRANCH   1   6
TORSDOF 5
REMARK  Name = ../refined-set-2016/1siv/1siv_pocket.pdb
REMARK  217 active torsions:
REMARK  status: ('A' for Active; 'I' for Inactive)
REMARK    1  A    between atoms: _1  and  _3
REMARK    2  A    between atoms: _3  and  _4
REMARK    3  A    between atoms: _3  and  _6
REMARK    4  A    between atoms: _6  and  _7
REMARK    5  A    between atoms: _7  and  _8
REMARK    6  A    between atoms: _8  and  _9
REMARK    7  A    between atoms: _18  and  _20
REMARK    8  A    between atoms: _20  and  _21
REMARK    9  A    between atoms: _20  and  _23
REMARK   10  A    between atoms: _23  and  _24
REMARK   11  A    between atoms: _27  and  _29
REMARK   12  A    between atoms: _29  and  _30
REMARK   13  A    between atoms: _29  and  _32
REMARK   14  A    between atoms: _32  and  _33
REMARK   15  A    between atoms: _36  and  _38
REMARK   16  A    between atoms: _38  and  _39
REMARK   17  A    between atoms: _38  and  _41
REMARK   18  A    between atoms: _41  and  _42
REMARK   19  A    between atoms: _45  and  _47
REMARK   20  A    between atoms: _47  and  _48
REMARK   21  A    between atoms: _47  and  _50
REMARK   22  A    between atoms: _50  and  _51
REMARK   23  A    between atoms: _54  and  _56
REMARK   24  A    between atoms: _56  and  _57
REMARK   25  A    between atoms: _59  and  _61
REMARK   26  A    between atoms: _61  and  _62
REMARK   27  A    between atoms: _65  and  _67
REMARK   28  A    between atoms: _67  and  _68
REMARK   29  A    between atoms: _67  and  _70
REMARK   30  A    between atoms: _70  and  _71
REMARK   31  A    between atoms: _74  and  _76
REMARK   32  A    between atoms: _76  and  _77
REMARK   33  A    between atoms: _76  and  _79
REMARK   34  A    between atoms: _79  and  _80
REMARK   35  A    between atoms: _83  and  _85
REMARK   36  A    between atoms: _85  and  _86
REMARK   37  A    between atoms: _85  and  _88
REMARK   38  A    between atoms: _88  and  _89
REMARK   39  A    between atoms: _91  and  _93
REMARK   40  A    between atoms: _93  and  _94
REMARK   41  A    between atoms: _93  and  _96
REMARK   42  A    between atoms: _96  and  _97
REMARK   43  A    between atoms: _100  and  _102
REMARK   44  A    between atoms: _102  and  _103
REMARK   45  A    between atoms: _102  and  _105
REMARK   46  A    between atoms: _105  and  _106
REMARK   47  A    between atoms: _106  and  _107
REMARK   48  A    between atoms: _107  and  _108
REMARK   49  A    between atoms: _108  and  _109
REMARK   50  A    between atoms: _113  and  _115
REMARK   51  A    between atoms: _115  and  _116
REMARK   52  A    between atoms: _115  and  _118
REMARK   53  A    between atoms: _118  and  _119
REMARK   54  A    between atoms: _122  and  _124
REMARK   55  A    between atoms: _124  and  _125
REMARK   56  A    between atoms: _124  and  _127
REMARK   57  A    between atoms: _130  and  _132
REMARK   58  A    between atoms: _132  and  _133
REMARK   59  A    between atoms: _135  and  _137
REMARK   60  A    between atoms: _137  and  _138
REMARK   61  A    between atoms: _140  and  _142
REMARK   62  A    between atoms: _142  and  _143
REMARK   63  A    between atoms: _142  and  _145
REMARK   64  A    between atoms: _145  and  _146
REMARK   65  A    between atoms: _149  and  _151
REMARK   66  A    between atoms: _151  and  _152
REMARK   67  A    between atoms: _154  and  _156
REMARK   68  A    between atoms: _156  and  _157
REMARK   69  A    between atoms: _159  and  _161
REMARK   70  A    between atoms: _161  and  _162
REMARK   71  A    between atoms: _161  and  _164
REMARK   72  A    between atoms: _164  and  _165
REMARK   73  A    between atoms: _171  and  _173
REMARK   74  A    between atoms: _173  and  _174
REMARK   75  A    between atoms: _173  and  _176
REMARK   76  A    between atoms: _176  and  _177
REMARK   77  A    between atoms: _180  and  _182
REMARK   78  A    between atoms: _182  and  _183
REMARK   79  A    between atoms: _182  and  _185
REMARK   80  A    between atoms: _185  and  _186
REMARK   81  A    between atoms: _189  and  _191
REMARK   82  A    between atoms: _191  and  _192
REMARK   83  A    between atoms: _191  and  _194
REMARK   84  A    between atoms: _194  and  _195
REMARK   85  A    between atoms: _195  and  _196
REMARK   86  A    between atoms: _198  and  _200
REMARK   87  A    between atoms: _200  and  _201
REMARK   88  A    between atoms: _200  and  _203
REMARK   89  A    between atoms: _203  and  _204
REMARK   90  A    between atoms: _208  and  _209
REMARK   91  A    between atoms: _214  and  _216
REMARK   92  A    between atoms: _216  and  _217
REMARK   93  A    between atoms: _216  and  _219
REMARK   94  A    between atoms: _219  and  _220
REMARK   95  A    between atoms: _223  and  _225
REMARK   96  A    between atoms: _225  and  _226
REMARK   97  A    between atoms: _225  and  _228
REMARK   98  A    between atoms: _228  and  _229
REMARK   99  A    between atoms: _234  and  _236
REMARK  100  A    between atoms: _236  and  _237
REMARK  101  A    between atoms: _236  and  _239
REMARK  102  A    between atoms: _239  and  _240
REMARK  103  A    between atoms: _243  and  _245
REMARK  104  A    between atoms: _245  and  _246
REMARK  105  A    between atoms: _248  and  _250
REMARK  106  A    between atoms: _250  and  _251
REMARK  107  A    between atoms: _250  and  _253
REMARK  108  A    between atoms: _253  and  _254
REMARK  109  A    between atoms: _254  and  _255
REMARK  110  A    between atoms: _255  and  _256
REMARK  111  A    between atoms: _265  and  _267
REMARK  112  A    between atoms: _267  and  _268
REMARK  113  A    between atoms: _267  and  _270
REMARK  114  A    between atoms: _270  and  _271
REMARK  115  A    between atoms: _271  and  _272
REMARK  116  A    between atoms: _272  and  _273
REMARK  117  A    between atoms: _282  and  _284
REMARK  118  A    between atoms: _284  and  _285
REMARK  119  A    between atoms: _284  and  _287
REMARK  120  A    between atoms: _287  and  _288
REMARK  121  A    between atoms: _291  and  _293
REMARK  122  A    between atoms: _293  and  _294
REMARK  123  A    between atoms: _293  and  _296
REMARK  124  A    between atoms: _296  and  _297
REMARK  125  A    between atoms: _300  and  _302
REMARK  126  A    between atoms: _302  and  _303
REMARK  127  A    between atoms: _302  and  _305
REMARK  128  A    between atoms: _305  and  _306
REMARK  129  A    between atoms: _309  and  _311
REMARK  130  A    between atoms: _311  and  _312
REMARK  131  A    between atoms: _311  and  _314
REMARK  132  A    between atoms: _314  and  _315
REMARK  133  A    between atoms: _318  and  _320
REMARK  134  A    between atoms: _320  and  _321
REMARK  135  A    between atoms: _323  and  _325
REMARK  136  A    between atoms: _325  and  _326
REMARK  137  A    between atoms: _329  and  _331
REMARK  138  A    between atoms: _331  and  _332
REMARK  139  A    between atoms: _331  and  _334
REMARK  140  A    between atoms: _334  and  _335
REMARK  141  A    between atoms: _338  and  _340
REMARK  142  A    between atoms: _340  and  _341
REMARK  143  A    between atoms: _340  and  _343
REMARK  144  A    between atoms: _343  and  _344
REMARK  145  A    between atoms: _347  and  _349
REMARK  146  A    between atoms: _349  and  _350
REMARK  147  A    between atoms: _349  and  _352
REMARK  148  A    between atoms: _352  and  _353
REMARK  149  A    between atoms: _355  and  _357
REMARK  150  A    between atoms: _357  and  _358
REMARK  151  A    between atoms: _357  and  _360
REMARK  152  A    between atoms: _360  and  _361
REMARK  153  A    between atoms: _364  and  _366
REMARK  154  A    between atoms: _366  and  _367
REMARK  155  A    between atoms: _366  and  _369
REMARK  156  A    between atoms: _369  and  _370
REMARK  157  A    between atoms: _373  and  _375
REMARK  158  A    between atoms: _375  and  _376
REMARK  159  A    between atoms: _375  and  _378
REMARK  160  A    between atoms: _381  and  _383
REMARK  161  A    between atoms: _383  and  _384
REMARK  162  A    between atoms: _386  and  _388
REMARK  163  A    between atoms: _388  and  _389
REMARK  164  A    between atoms: _391  and  _393
REMARK  165  A    between atoms: _393  and  _394
REMARK  166  A    between atoms: _393  and  _396
REMARK  167  A    between atoms: _396  and  _397
REMARK  168  A    between atoms: _400  and  _402
REMARK  169  A    between atoms: _402  and  _403
REMARK  170  A    between atoms: _405  and  _407
REMARK  171  A    between atoms: _407  and  _408
REMARK  172  A    between atoms: _410  and  _412
REMARK  173  A    between atoms: _412  and  _413
REMARK  174  A    between atoms: _412  and  _415
REMARK  175  A    between atoms: _415  and  _416
REMARK  176  A    between atoms: _422  and  _424
REMARK  177  A    between atoms: _424  and  _425
REMARK  178  A    between atoms: _424  and  _427
REMARK  179  A    between atoms: _427  and  _428
REMARK  180  A    between atoms: _431  and  _433
REMARK  181  A    between atoms: _433  and  _434
REMARK  182  A    between atoms: _433  and  _436
REMARK  183  A    between atoms: _436  and  _437
REMARK  184  A    between atoms: _437  and  _438
REMARK  185  A    between atoms: _440  and  _442
REMARK  186  A    between atoms: _442  and  _443
REMARK  187  A    between atoms: _442  and  _445
REMARK  188  A    between atoms: _445  and  _446
REMARK  189  A    between atoms: _450  and  _451
REMARK  190  A    between atoms: _456  and  _458
REMARK  191  A    between atoms: _458  and  _459
REMARK  192  A    between atoms: _458  and  _461
REMARK  193  A    between atoms: _461  and  _462
REMARK  194  A    between atoms: _465  and  _467
REMARK  195  A    between atoms: _467  and  _468
REMARK  196  A    between atoms: _467  and  _470
REMARK  197  A    between atoms: _470  and  _471
REMARK  198  A    between atoms: _476  and  _478
REMARK  199  A    between atoms: _478  and  _479
REMARK  200  A    between atoms: _478  and  _481
REMARK  201  A    between atoms: _481  and  _482
REMARK  202  A    between atoms: _485  and  _487
REMARK  203  A    between atoms: _487  and  _488
REMARK  204  A    between atoms: _487  and  _490
REMARK  205  A    between atoms: _490  and  _491
REMARK  206  A    between atoms: _497  and  _499
REMARK  207  A    between atoms: _499  and  _500
REMARK  208  A    between atoms: _502  and  _504
REMARK  209  A    between atoms: _504  and  _505
REMARK  210  A    between atoms: _504  and  _507
REMARK  211  A    between atoms: _507  and  _508
REMARK  212  A    between atoms: _508  and  _509
REMARK  213  A    between atoms: _509  and  _510
REMARK  214  A    between atoms: _519  and  _521
REMARK  215  A    between atoms: _521  and  _522
REMARK  216  A    between atoms: _521  and  _524
REMARK  217  A    between atoms: _524  and  _525
REMARK                            x       y       z     vdW  Elec       q    Type
REMARK                         _______ _______ _______ _____ _____    ______ ____
ROOT
ATOM      1  CA  ILE A   3      13.162  11.888  40.062  0.00  0.00    +0.149 C 
ENDROOT
BRANCH   1   3
ATOM      2  C   PRO A   2      13.501  10.238  38.243  0.00  0.00    +0.241 C 
ATOM      3  N   ILE A   3      12.858  10.659  39.355  0.00  0.00    -0.297 N 
ATOM      4  H   ILE A   3      12.094  10.061  39.729  0.00  0.00    +0.150 HD
ATOM      5  O   PRO A   2      14.437  10.854  37.739  0.00  0.00    -0.273 OA
BRANCH   2  12
ATOM      6  C   THR A   1      12.902   7.446  39.643  0.00  0.00    +0.244 C 
ATOM      7  O   THR A   1      14.071   7.675  39.989  0.00  0.00    -0.273 OA
ATOM      8  N   PRO A   2      12.368   7.980  38.518  0.00  0.00    -0.272 N 
ATOM      9  CD  PRO A   2      10.998   7.738  38.070  0.00  0.00    +0.094 C 
ATOM     10  CG  PRO A   2      10.743   8.911  37.140  0.00  0.00    +0.024 C 
ATOM     11  CB  PRO A   2      12.100   9.151  36.505  0.00  0.00    +0.031 C 
ATOM     12  CA  PRO A   2      13.055   8.923  37.622  0.00  0.00    +0.152 C 
BRANCH   6  13
ATOM     13  CA  THR A   1      12.008   6.575  40.512  0.00  0.00    +0.172 C 
BRANCH  13  14
ATOM     14  CB  THR A   1      11.537   7.349  41.832  0.00  0.00    +0.135 C 
ATOM     15  CG2 THR A   1      12.616   7.939  42.719  0.00  0.00    +0.034 C 
BRANCH  14  16
ATOM     16  OG1 THR A   1      10.747   8.434  41.363  0.00  0.00    -0.383 OA
ATOM     17  HG1 THR A   1      11.297   9.012  40.777  0.00  0.00    +0.210 HD
ENDBRANCH  14  16
ENDBRANCH  13  14
BRANCH  13  18
ATOM     18  N   THR A   1      12.694   5.354  40.878  0.00  0.00    -0.236 NA
ATOM     19  H   THR A   1      13.549   5.417  41.466  0.00  0.00    +0.142 HD
ENDBRANCH  13  18
ENDBRANCH   6  13
ENDBRANCH   2  12
ENDBRANCH   1   3
BRANCH   1  20
ATOM     20  C   ILE A   3      12.932  11.695  41.563  0.00  0.00    +0.241 C 
ATOM     21  N   ASN A   4      13.635  12.355  42.509  0.00  0.00    -0.297 N 
ATOM     22  H   ASN A   4      14.363  13.037  42.217  0.00  0.00    +0.150 HD
ATOM     23  O   ILE A   3      12.054  10.892  41.892  0.00  0.00    -0.273 OA
BRANCH  21  24
ATOM     24  CA  ASN A   4      13.394  12.131  43.945  0.00  0.00    +0.158 C 
BRANCH  24  25
ATOM     25  C   ASN A   4      12.270  13.064  44.320  0.00  0.00    +0.241 C 
ATOM     26  N   ILE A   5      11.285  12.525  45.022  0.00  0.00    -0.298 N 
ATOM     27  H   ILE A   5      11.365  11.524  45.291  0.00  0.00    +0.150 HD
ATOM     28  O   ASN A   4      12.292  14.255  43.987  0.00  0.00    -0.273 OA
BRANCH  26  29
ATOM     29  CA  ILE A   5      10.108  13.249  45.434  0.00  0.00    +0.137 C 
BRANCH  29  30
ATOM     30  CB  ILE A   5       8.924  12.511  44.760  0.00  0.00    +0.026 C 
ATOM     31  CG2 ILE A   5       7.600  12.987  45.360  0.00  0.00    +0.002 C 
BRANCH  30  32
ATOM     32  CG1 ILE A   5       8.995  12.669  43.264  0.00  0.00    +0.002 C 
ATOM     33  CD1 ILE A   5       8.065  11.675  42.631  0.00  0.00    +0.000 C 
ENDBRANCH  30  32
ENDBRANCH  29  30
BRANCH  29  34
ATOM     34  C   ILE A   5       9.899  13.365  46.918  0.00  0.00    +0.227 C 
ATOM     35  O   ILE A   5      10.054  12.395  47.639  0.00  0.00    -0.286 OA
ENDBRANCH  29  34
ENDBRANCH  26  29
ENDBRANCH  24  25
BRANCH  24  36
ATOM     36  CB  ASN A   4      14.580  12.460  44.791  0.00  0.00    +0.114 C 
BRANCH  36  37
ATOM     37  CG  ASN A   4      15.804  11.639  44.410  0.00  0.00    +0.222 C 
ATOM     38  ND2 ASN A   4      16.979  12.248  44.429  0.00  0.00    -0.329 N 
ATOM     39 HD21 ASN A   4      17.046  13.240  44.735  0.00  0.00    +0.145 HD
ATOM     40 HD22 ASN A   4      17.835  11.735  44.138  0.00  0.00    +0.145 HD
ATOM     41  OD1 ASN A   4      15.738  10.458  44.043  0.00  0.00    -0.275 OA
ENDBRANCH  36  37
ENDBRANCH  24  36
ENDBRANCH  21  24
ENDBRANCH   1  20
BRANCH   1  42
ATOM     42  CB  ILE A   3      12.262  12.908  39.435  0.00  0.00    +0.027 C 
ATOM     43  CG2 ILE A   3      10.819  12.562  39.768  0.00  0.00    +0.002 C 
BRANCH  42  44
ATOM     44  CG1 ILE A   3      12.637  14.265  39.918  0.00  0.00    +0.002 C 
ATOM     45  CD1 ILE A   3      11.808  15.277  39.097  0.00  0.00    +0.000 C 
ENDBRANCH  42  44
ENDBRANCH   1  42
TORSDOF 17
REMARK  Name = ../refined-set-2016/1siv/1siv_pocket.pdb
REMARK  217 active torsions:
REMARK  status: ('A' for Active; 'I' for Inactive)
REMARK    1  A    between atoms: _1  and  _3
REMARK    2  A    between atoms: _3  and  _4
REMARK    3  A    between atoms: _3  and  _6
REMARK    4  A    between atoms: _6  and  _7
REMARK    5  A    between atoms: _7  and  _8
REMARK    6  A    between atoms: _8  and  _9
REMARK    7  A    between atoms: _18  and  _20
REMARK    8  A    between atoms: _20  and  _21
REMARK    9  A    between atoms: _20  and  _23
REMARK   10  A    between atoms: _23  and  _24
REMARK   11  A    between atoms: _27  and  _29
REMARK   12  A    between atoms: _29  and  _30
REMARK   13  A    between atoms: _29  and  _32
REMARK   14  A    between atoms: _32  and  _33
REMARK   15  A    between atoms: _36  and  _38
REMARK   16  A    between atoms: _38  and  _39
REMARK   17  A    between atoms: _38  and  _41
REMARK   18  A    between atoms: _41  and  _42
REMARK   19  A    between atoms: _45  and  _47
REMARK   20  A    between atoms: _47  and  _48
REMARK   21  A    between atoms: _47  and  _50
REMARK   22  A    between atoms: _50  and  _51
REMARK   23  A    between atoms: _54  and  _56
REMARK   24  A    between atoms: _56  and  _57
REMARK   25  A    between atoms: _59  and  _61
REMARK   26  A    between atoms: _61  and  _62
REMARK   27  A    between atoms: _65  and  _67
REMARK   28  A    between atoms: _67  and  _68
REMARK   29  A    between atoms: _67  and  _70
REMARK   30  A    between atoms: _70  and  _71
REMARK   31  A    between atoms: _74  and  _76
REMARK   32  A    between atoms: _76  and  _77
REMARK   33  A    between atoms: _76  and  _79
REMARK   34  A    between atoms: _79  and  _80
REMARK   35  A    between atoms: _83  and  _85
REMARK   36  A    between atoms: _85  and  _86
REMARK   37  A    between atoms: _85  and  _88
REMARK   38  A    between atoms: _88  and  _89
REMARK   39  A    between atoms: _91  and  _93
REMARK   40  A    between atoms: _93  and  _94
REMARK   41  A    between atoms: _93  and  _96
REMARK   42  A    between atoms: _96  and  _97
REMARK   43  A    between atoms: _100  and  _102
REMARK   44  A    between atoms: _102  and  _103
REMARK   45  A    between atoms: _102  and  _105
REMARK   46  A    between atoms: _105  and  _106
REMARK   47  A    between atoms: _106  and  _107
REMARK   48  A    between atoms: _107  and  _108
REMARK   49  A    between atoms: _108  and  _109
REMARK   50  A    between atoms: _113  and  _115
REMARK   51  A    between atoms: _115  and  _116
REMARK   52  A    between atoms: _115  and  _118
REMARK   53  A    between atoms: _118  and  _119
REMARK   54  A    between atoms: _122  and  _124
REMARK   55  A    between atoms: _124  and  _125
REMARK   56  A    between atoms: _124  and  _127
REMARK   57  A    between atoms: _130  and  _132
REMARK   58  A    between atoms: _132  and  _133
REMARK   59  A    between atoms: _135  and  _137
REMARK   60  A    between atoms: _137  and  _138
REMARK   61  A    between atoms: _140  and  _142
REMARK   62  A    between atoms: _142  and  _143
REMARK   63  A    between atoms: _142  and  _145
REMARK   64  A    between atoms: _145  and  _146
REMARK   65  A    between atoms: _149  and  _151
REMARK   66  A    between atoms: _151  and  _152
REMARK   67  A    between atoms: _154  and  _156
REMARK   68  A    between atoms: _156  and  _157
REMARK   69  A    between atoms: _159  and  _161
REMARK   70  A    between atoms: _161  and  _162
REMARK   71  A    between atoms: _161  and  _164
REMARK   72  A    between atoms: _164  and  _165
REMARK   73  A    between atoms: _171  and  _173
REMARK   74  A    between atoms: _173  and  _174
REMARK   75  A    between atoms: _173  and  _176
REMARK   76  A    between atoms: _176  and  _177
REMARK   77  A    between atoms: _180  and  _182
REMARK   78  A    between atoms: _182  and  _183
REMARK   79  A    between atoms: _182  and  _185
REMARK   80  A    between atoms: _185  and  _186
REMARK   81  A    between atoms: _189  and  _191
REMARK   82  A    between atoms: _191  and  _192
REMARK   83  A    between atoms: _191  and  _194
REMARK   84  A    between atoms: _194  and  _195
REMARK   85  A    between atoms: _195  and  _196
REMARK   86  A    between atoms: _198  and  _200
REMARK   87  A    between atoms: _200  and  _201
REMARK   88  A    between atoms: _200  and  _203
REMARK   89  A    between atoms: _203  and  _204
REMARK   90  A    between atoms: _208  and  _209
REMARK   91  A    between atoms: _214  and  _216
REMARK   92  A    between atoms: _216  and  _217
REMARK   93  A    between atoms: _216  and  _219
REMARK   94  A    between atoms: _219  and  _220
REMARK   95  A    between atoms: _223  and  _225
REMARK   96  A    between atoms: _225  and  _226
REMARK   97  A    between atoms: _225  and  _228
REMARK   98  A    between atoms: _228  and  _229
REMARK   99  A    between atoms: _234  and  _236
REMARK  100  A    between atoms: _236  and  _237
REMARK  101  A    between atoms: _236  and  _239
REMARK  102  A    between atoms: _239  and  _240
REMARK  103  A    between atoms: _243  and  _245
REMARK  104  A    between atoms: _245  and  _246
REMARK  105  A    between atoms: _248  and  _250
REMARK  106  A    between atoms: _250  and  _251
REMARK  107  A    between atoms: _250  and  _253
REMARK  108  A    between atoms: _253  and  _254
REMARK  109  A    between atoms: _254  and  _255
REMARK  110  A    between atoms: _255  and  _256
REMARK  111  A    between atoms: _265  and  _267
REMARK  112  A    between atoms: _267  and  _268
REMARK  113  A    between atoms: _267  and  _270
REMARK  114  A    between atoms: _270  and  _271
REMARK  115  A    between atoms: _271  and  _272
REMARK  116  A    between atoms: _272  and  _273
REMARK  117  A    between atoms: _282  and  _284
REMARK  118  A    between atoms: _284  and  _285
REMARK  119  A    between atoms: _284  and  _287
REMARK  120  A    between atoms: _287  and  _288
REMARK  121  A    between atoms: _291  and  _293
REMARK  122  A    between atoms: _293  and  _294
REMARK  123  A    between atoms: _293  and  _296
REMARK  124  A    between atoms: _296  and  _297
REMARK  125  A    between atoms: _300  and  _302
REMARK  126  A    between atoms: _302  and  _303
REMARK  127  A    between atoms: _302  and  _305
REMARK  128  A    between atoms: _305  and  _306
REMARK  129  A    between atoms: _309  and  _311
REMARK  130  A    between atoms: _311  and  _312
REMARK  131  A    between atoms: _311  and  _314
REMARK  132  A    between atoms: _314  and  _315
REMARK  133  A    between atoms: _318  and  _320
REMARK  134  A    between atoms: _320  and  _321
REMARK  135  A    between atoms: _323  and  _325
REMARK  136  A    between atoms: _325  and  _326
REMARK  137  A    between atoms: _329  and  _331
REMARK  138  A    between atoms: _331  and  _332
REMARK  139  A    between atoms: _331  and  _334
REMARK  140  A    between atoms: _334  and  _335
REMARK  141  A    between atoms: _338  and  _340
REMARK  142  A    between atoms: _340  and  _341
REMARK  143  A    between atoms: _340  and  _343
REMARK  144  A    between atoms: _343  and  _344
REMARK  145  A    between atoms: _347  and  _349
REMARK  146  A    between atoms: _349  and  _350
REMARK  147  A    between atoms: _349  and  _352
REMARK  148  A    between atoms: _352  and  _353
REMARK  149  A    between atoms: _355  and  _357
REMARK  150  A    between atoms: _357  and  _358
REMARK  151  A    between atoms: _357  and  _360
REMARK  152  A    between atoms: _360  and  _361
REMARK  153  A    between atoms: _364  and  _366
REMARK  154  A    between atoms: _366  and  _367
REMARK  155  A    between atoms: _366  and  _369
REMARK  156  A    between atoms: _369  and  _370
REMARK  157  A    between atoms: _373  and  _375
REMARK  158  A    between atoms: _375  and  _376
REMARK  159  A    between atoms: _375  and  _378
REMARK  160  A    between atoms: _381  and  _383
REMARK  161  A    between atoms: _383  and  _384
REMARK  162  A    between atoms: _386  and  _388
REMARK  163  A    between atoms: _388  and  _389
REMARK  164  A    between atoms: _391  and  _393
REMARK  165  A    between atoms: _393  and  _394
REMARK  166  A    between atoms: _393  and  _396
REMARK  167  A    between atoms: _396  and  _397
REMARK  168  A    between atoms: _400  and  _402
REMARK  169  A    between atoms: _402  and  _403
REMARK  170  A    between atoms: _405  and  _407
REMARK  171  A    between atoms: _407  and  _408
REMARK  172  A    between atoms: _410  and  _412
REMARK  173  A    between atoms: _412  and  _413
REMARK  174  A    between atoms: _412  and  _415
REMARK  175  A    between atoms: _415  and  _416
REMARK  176  A    between atoms: _422  and  _424
REMARK  177  A    between atoms: _424  and  _425
REMARK  178  A    between atoms: _424  and  _427
REMARK  179  A    between atoms: _427  and  _428
REMARK  180  A    between atoms: _431  and  _433
REMARK  181  A    between atoms: _433  and  _434
REMARK  182  A    between atoms: _433  and  _436
REMARK  183  A    between atoms: _436  and  _437
REMARK  184  A    between atoms: _437  and  _438
REMARK  185  A    between atoms: _440  and  _442
REMARK  186  A    between atoms: _442  and  _443
REMARK  187  A    between atoms: _442  and  _445
REMARK  188  A    between atoms: _445  and  _446
REMARK  189  A    between atoms: _450  and  _451
REMARK  190  A    between atoms: _456  and  _458
REMARK  191  A    between atoms: _458  and  _459
REMARK  192  A    between atoms: _458  and  _461
REMARK  193  A    between atoms: _461  and  _462
REMARK  194  A    between atoms: _465  and  _467
REMARK  195  A    between atoms: _467  and  _468
REMARK  196  A    between atoms: _467  and  _470
REMARK  197  A    between atoms: _470  and  _471
REMARK  198  A    between atoms: _476  and  _478
REMARK  199  A    between atoms: _478  and  _479
REMARK  200  A    between atoms: _478  and  _481
REMARK  201  A    between atoms: _481  and  _482
REMARK  202  A    between atoms: _485  and  _487
REMARK  203  A    between atoms: _487  and  _488
REMARK  204  A    between atoms: _487  and  _490
REMARK  205  A    between atoms: _490  and  _491
REMARK  206  A    between atoms: _497  and  _499
REMARK  207  A    between atoms: _499  and  _500
REMARK  208  A    between atoms: _502  and  _504
REMARK  209  A    between atoms: _504  and  _505
REMARK  210  A    between atoms: _504  and  _507
REMARK  211  A    between atoms: _507  and  _508
REMARK  212  A    between atoms: _508  and  _509
REMARK  213  A    between atoms: _509  and  _510
REMARK  214  A    between atoms: _519  and  _521
REMARK  215  A    between atoms: _521  and  _522
REMARK  216  A    between atoms: _521  and  _524
REMARK  217  A    between atoms: _524  and  _525
REMARK                            x       y       z     vdW  Elec       q    Type
REMARK                         _______ _______ _______ _____ _____    ______ ____
ROOT
ATOM      1  CB  ARG A   2       1.357  15.324  50.969  0.00  0.00    +0.031 C 
ENDROOT
BRANCH   1   2
ATOM      2  CA  ARG A   2       2.802  15.577  51.282  0.00  0.00    +0.137 C 
BRANCH   2   5
ATOM      3  C   GLY A   1       4.922  14.911  50.235  0.00  0.00    +0.240 C 
ATOM      4  O   GLY A   1       5.604  15.395  51.121  0.00  0.00    -0.274 OA
ATOM      5  N   ARG A   2       3.604  14.878  50.309  0.00  0.00    -0.298 N 
ATOM      6  H   ARG A   2       3.102  14.299  49.606  0.00  0.00    +0.150 HD
BRANCH   3   7
ATOM      7  CA  GLY A   1       5.525  14.209  49.041  0.00  0.00    +0.169 C 
BRANCH   7   8
ATOM      8  N   GLY A   1       6.962  14.166  49.071  0.00  0.00    -0.236 NA
ATOM      9  H   GLY A   1       7.412  13.319  49.473  0.00  0.00    +0.142 HD
ENDBRANCH   7   8
ENDBRANCH   3   7
ENDBRANCH   2   5
BRANCH   2  10
ATOM     10  C   ARG A   2       3.102  15.233  52.729  0.00  0.00    +0.227 C 
ATOM     11  O   ARG A   2       3.026  16.081  53.633  0.00  0.00    -0.286 OA
ENDBRANCH   2  10
ENDBRANCH   1   2
BRANCH   1  12
ATOM     12  CG  ARG A   2       0.850  16.250  49.872  0.00  0.00    +0.045 C 
BRANCH  12  13
ATOM     13  CD  ARG A   2      -0.664  16.246  49.740  0.00  0.00    +0.174 C 
BRANCH  13  14
ATOM     14  NE  ARG A   2      -1.111  14.873  49.588  0.00  0.00    -0.265 N 
ATOM     15  CZ  ARG A   2      -1.832  14.283  50.543  0.00  0.00    +0.342 C 
ATOM     16  NH2 ARG A   2      -2.158  14.962  51.648  0.00  0.00    -0.292 N 
ATOM     17 HH21 ARG A   2      -2.720  14.503  52.393  0.00  0.00    +0.255 HD
ATOM     18 HH22 ARG A   2      -1.850  15.949  51.762  0.00  0.00    +0.255 HD
ATOM     19  NH1 ARG A   2      -2.226  13.021  50.407  0.00  0.00    -0.292 N 
ATOM     20 HH11 ARG A   2      -2.788  12.568  51.156  0.00  0.00    +0.255 HD
ATOM     21 HH12 ARG A   2      -1.973  12.486  49.552  0.00  0.00    +0.255 HD
ATOM     22  HE  ARG A   2      -0.867  14.344  48.726  0.00  0.00    +0.259 HD
ENDBRANCH  13  14
ENDBRANCH  12  13
ENDBRANCH   1  12
TORSDOF 8
REMARK  Name = ../refined-set-2016/1siv/1siv_pocket.pdb
REMARK  217 active torsions:
REMARK  status: ('A' for Active; 'I' for Inactive)
REMARK    1  A    between atoms: _1  and  _3
REMARK    2  A    between atoms: _3  and  _4
REMARK    3  A    between atoms: _3  and  _6
REMARK    4  A    between atoms: _6  and  _7
REMARK    5  A    between atoms: _7  and  _8
REMARK    6  A    between atoms: _8  and  _9
REMARK    7  A    between atoms: _18  and  _20
REMARK    8  A    between atoms: _20  and  _21
REMARK    9  A    between atoms: _20  and  _23
REMARK   10  A    between atoms: _23  and  _24
REMARK   11  A    between atoms: _27  and  _29
REMARK   12  A    between atoms: _29  and  _30
REMARK   13  A    between atoms: _29  and  _32
REMARK   14  A    between atoms: _32  and  _33
REMARK   15  A    between atoms: _36  and  _38
REMARK   16  A    between atoms: _38  and  _39
REMARK   17  A    between atoms: _38  and  _41
REMARK   18  A    between atoms: _41  and  _42
REMARK   19  A    between atoms: _45  and  _47
REMARK   20  A    between atoms: _47  and  _48
REMARK   21  A    between atoms: _47  and  _50
REMARK   22  A    between atoms: _50  and  _51
REMARK   23  A    between atoms: _54  and  _56
REMARK   24  A    between atoms: _56  and  _57
REMARK   25  A    between atoms: _59  and  _61
REMARK   26  A    between atoms: _61  and  _62
REMARK   27  A    between atoms: _65  and  _67
REMARK   28  A    between atoms: _67  and  _68
REMARK   29  A    between atoms: _67  and  _70
REMARK   30  A    between atoms: _70  and  _71
REMARK   31  A    between atoms: _74  and  _76
REMARK   32  A    between atoms: _76  and  _77
REMARK   33  A    between atoms: _76  and  _79
REMARK   34  A    between atoms: _79  and  _80
REMARK   35  A    between atoms: _83  and  _85
REMARK   36  A    between atoms: _85  and  _86
REMARK   37  A    between atoms: _85  and  _88
REMARK   38  A    between atoms: _88  and  _89
REMARK   39  A    between atoms: _91  and  _93
REMARK   40  A    between atoms: _93  and  _94
REMARK   41  A    between atoms: _93  and  _96
REMARK   42  A    between atoms: _96  and  _97
REMARK   43  A    between atoms: _100  and  _102
REMARK   44  A    between atoms: _102  and  _103
REMARK   45  A    between atoms: _102  and  _105
REMARK   46  A    between atoms: _105  and  _106
REMARK   47  A    between atoms: _106  and  _107
REMARK   48  A    between atoms: _107  and  _108
REMARK   49  A    between atoms: _108  and  _109
REMARK   50  A    between atoms: _113  and  _115
REMARK   51  A    between atoms: _115  and  _116
REMARK   52  A    between atoms: _115  and  _118
REMARK   53  A    between atoms: _118  and  _119
REMARK   54  A    between atoms: _122  and  _124
REMARK   55  A    between atoms: _124  and  _125
REMARK   56  A    between atoms: _124  and  _127
REMARK   57  A    between atoms: _130  and  _132
REMARK   58  A    between atoms: _132  and  _133
REMARK   59  A    between atoms: _135  and  _137
REMARK   60  A    between atoms: _137  and  _138
REMARK   61  A    between atoms: _140  and  _142
REMARK   62  A    between atoms: _142  and  _143
REMARK   63  A    between atoms: _142  and  _145
REMARK   64  A    between atoms: _145  and  _146
REMARK   65  A    between atoms: _149  and  _151
REMARK   66  A    between atoms: _151  and  _152
REMARK   67  A    between atoms: _154  and  _156
REMARK   68  A    between atoms: _156  and  _157
REMARK   69  A    between atoms: _159  and  _161
REMARK   70  A    between atoms: _161  and  _162
REMARK   71  A    between atoms: _161  and  _164
REMARK   72  A    between atoms: _164  and  _165
REMARK   73  A    between atoms: _171  and  _173
REMARK   74  A    between atoms: _173  and  _174
REMARK   75  A    between atoms: _173  and  _176
REMARK   76  A    between atoms: _176  and  _177
REMARK   77  A    between atoms: _180  and  _182
REMARK   78  A    between atoms: _182  and  _183
REMARK   79  A    between atoms: _182  and  _185
REMARK   80  A    between atoms: _185  and  _186
REMARK   81  A    between atoms: _189  and  _191
REMARK   82  A    between atoms: _191  and  _192
REMARK   83  A    between atoms: _191  and  _194
REMARK   84  A    between atoms: _194  and  _195
REMARK   85  A    between atoms: _195  and  _196
REMARK   86  A    between atoms: _198  and  _200
REMARK   87  A    between atoms: _200  and  _201
REMARK   88  A    between atoms: _200  and  _203
REMARK   89  A    between atoms: _203  and  _204
REMARK   90  A    between atoms: _208  and  _209
REMARK   91  A    between atoms: _214  and  _216
REMARK   92  A    between atoms: _216  and  _217
REMARK   93  A    between atoms: _216  and  _219
REMARK   94  A    between atoms: _219  and  _220
REMARK   95  A    between atoms: _223  and  _225
REMARK   96  A    between atoms: _225  and  _226
REMARK   97  A    between atoms: _225  and  _228
REMARK   98  A    between atoms: _228  and  _229
REMARK   99  A    between atoms: _234  and  _236
REMARK  100  A    between atoms: _236  and  _237
REMARK  101  A    between atoms: _236  and  _239
REMARK  102  A    between atoms: _239  and  _240
REMARK  103  A    between atoms: _243  and  _245
REMARK  104  A    between atoms: _245  and  _246
REMARK  105  A    between atoms: _248  and  _250
REMARK  106  A    between atoms: _250  and  _251
REMARK  107  A    between atoms: _250  and  _253
REMARK  108  A    between atoms: _253  and  _254
REMARK  109  A    between atoms: _254  and  _255
REMARK  110  A    between atoms: _255  and  _256
REMARK  111  A    between atoms: _265  and  _267
REMARK  112  A    between atoms: _267  and  _268
REMARK  113  A    between atoms: _267  and  _270
REMARK  114  A    between atoms: _270  and  _271
REMARK  115  A    between atoms: _271  and  _272
REMARK  116  A    between atoms: _272  and  _273
REMARK  117  A    between atoms: _282  and  _284
REMARK  118  A    between atoms: _284  and  _285
REMARK  119  A    between atoms: _284  and  _287
REMARK  120  A    between atoms: _287  and  _288
REMARK  121  A    between atoms: _291  and  _293
REMARK  122  A    between atoms: _293  and  _294
REMARK  123  A    between atoms: _293  and  _296
REMARK  124  A    between atoms: _296  and  _297
REMARK  125  A    between atoms: _300  and  _302
REMARK  126  A    between atoms: _302  and  _303
REMARK  127  A    between atoms: _302  and  _305
REMARK  128  A    between atoms: _305  and  _306
REMARK  129  A    between atoms: _309  and  _311
REMARK  130  A    between atoms: _311  and  _312
REMARK  131  A    between atoms: _311  and  _314
REMARK  132  A    between atoms: _314  and  _315
REMARK  133  A    between atoms: _318  and  _320
REMARK  134  A    between atoms: _320  and  _321
REMARK  135  A    between atoms: _323  and  _325
REMARK  136  A    between atoms: _325  and  _326
REMARK  137  A    between atoms: _329  and  _331
REMARK  138  A    between atoms: _331  and  _332
REMARK  139  A    between atoms: _331  and  _334
REMARK  140  A    between atoms: _334  and  _335
REMARK  141  A    between atoms: _338  and  _340
REMARK  142  A    between atoms: _340  and  _341
REMARK  143  A    between atoms: _340  and  _343
REMARK  144  A    between atoms: _343  and  _344
REMARK  145  A    between atoms: _347  and  _349
REMARK  146  A    between atoms: _349  and  _350
REMARK  147  A    between atoms: _349  and  _352
REMARK  148  A    between atoms: _352  and  _353
REMARK  149  A    between atoms: _355  and  _357
REMARK  150  A    between atoms: _357  and  _358
REMARK  151  A    between atoms: _357  and  _360
REMARK  152  A    between atoms: _360  and  _361
REMARK  153  A    between atoms: _364  and  _366
REMARK  154  A    between atoms: _366  and  _367
REMARK  155  A    between atoms: _366  and  _369
REMARK  156  A    between atoms: _369  and  _370
REMARK  157  A    between atoms: _373  and  _375
REMARK  158  A    between atoms: _375  and  _376
REMARK  159  A    between atoms: _375  and  _378
REMARK  160  A    between atoms: _381  and  _383
REMARK  161  A    between atoms: _383  and  _384
REMARK  162  A    between atoms: _386  and  _388
REMARK  163  A    between atoms: _388  and  _389
REMARK  164  A    between atoms: _391  and  _393
REMARK  165  A    between atoms: _393  and  _394
REMARK  166  A    between atoms: _393  and  _396
REMARK  167  A    between atoms: _396  and  _397
REMARK  168  A    between atoms: _400  and  _402
REMARK  169  A    between atoms: _402  and  _403
REMARK  170  A    between atoms: _405  and  _407
REMARK  171  A    between atoms: _407  and  _408
REMARK  172  A    between atoms: _410  and  _412
REMARK  173  A    between atoms: _412  and  _413
REMARK  174  A    between atoms: _412  and  _415
REMARK  175  A    between atoms: _415  and  _416
REMARK  176  A    between atoms: _422  and  _424
REMARK  177  A    between atoms: _424  and  _425
REMARK  178  A    between atoms: _424  and  _427
REMARK  179  A    between atoms: _427  and  _428
REMARK  180  A    between atoms: _431  and  _433
REMARK  181  A    between atoms: _433  and  _434
REMARK  182  A    between atoms: _433  and  _436
REMARK  183  A    between atoms: _436  and  _437
REMARK  184  A    between atoms: _437  and  _438
REMARK  185  A    between atoms: _440  and  _442
REMARK  186  A    between atoms: _442  and  _443
REMARK  187  A    between atoms: _442  and  _445
REMARK  188  A    between atoms: _445  and  _446
REMARK  189  A    between atoms: _450  and  _451
REMARK  190  A    between atoms: _456  and  _458
REMARK  191  A    between atoms: _458  and  _459
REMARK  192  A    between atoms: _458  and  _461
REMARK  193  A    between atoms: _461  and  _462
REMARK  194  A    between atoms: _465  and  _467
REMARK  195  A    between atoms: _467  and  _468
REMARK  196  A    between atoms: _467  and  _470
REMARK  197  A    between atoms: _470  and  _471
REMARK  198  A    between atoms: _476  and  _478
REMARK  199  A    between atoms: _478  and  _479
REMARK  200  A    between atoms: _478  and  _481
REMARK  201  A    between atoms: _481  and  _482
REMARK  202  A    between atoms: _485  and  _487
REMARK  203  A    between atoms: _487  and  _488
REMARK  204  A    between atoms: _487  and  _490
REMARK  205  A    between atoms: _490  and  _491
REMARK  206  A    between atoms: _497  and  _499
REMARK  207  A    between atoms: _499  and  _500
REMARK  208  A    between atoms: _502  and  _504
REMARK  209  A    between atoms: _504  and  _505
REMARK  210  A    between atoms: _504  and  _507
REMARK  211  A    between atoms: _507  and  _508
REMARK  212  A    between atoms: _508  and  _509
REMARK  213  A    between atoms: _509  and  _510
REMARK  214  A    between atoms: _519  and  _521
REMARK  215  A    between atoms: _521  and  _522
REMARK  216  A    between atoms: _521  and  _524
REMARK  217  A    between atoms: _524  and  _525
REMARK                            x       y       z     vdW  Elec       q    Type
REMARK                         _______ _______ _______ _____ _____    ______ ____
ROOT
ATOM      1  NE  ARG A   1      -4.609  11.350  47.369  0.00  0.00    -0.265 N 
ATOM      2  HE  ARG A   1      -3.666  11.367  47.806  0.00  0.00    +0.259 HD
ATOM      3  CZ  ARG A   1      -5.133  10.169  47.051  0.00  0.00    +0.342 C 
ATOM      4  NH2 ARG A   1      -4.419   9.088  47.311  0.00  0.00    -0.292 N 
ATOM      5 HH21 ARG A   1      -3.481   9.178  47.750  0.00  0.00    +0.255 HD
ATOM      6 HH22 ARG A   1      -4.796   8.147  47.077  0.00  0.00    +0.255 HD
ATOM      7  NH1 ARG A   1      -6.333  10.067  46.485  0.00  0.00    -0.292 N 
ATOM      8 HH11 ARG A   1      -6.886  10.924  46.281  0.00  0.00    +0.255 HD
ATOM      9 HH12 ARG A   1      -6.718   9.131  46.247  0.00  0.00    +0.255 HD
ENDROOT
BRANCH   1  10
ATOM     10  CD  ARG A   1      -5.276  12.604  47.141  0.00  0.00    +0.174 C 
BRANCH  10  11
ATOM     11  CG  ARG A   1      -4.537  13.578  47.989  0.00  0.00    +0.045 C 
BRANCH  11  12
ATOM     12  CB  ARG A   1      -5.334  14.825  47.861  0.00  0.00    +0.029 C 
BRANCH  12  13
ATOM     13  CA  ARG A   1      -4.840  15.881  48.780  0.00  0.00    +0.133 C 
BRANCH  13  14
ATOM     14  N   ARG A   1      -5.180  15.544  50.148  0.00  0.00    -0.239 NA
ATOM     15  H   ARG A   1      -5.691  14.654  50.316  0.00  0.00    +0.142 HD
ENDBRANCH  13  14
BRANCH  13  16
ATOM     16  C   ARG A   1      -5.443  17.207  48.321  0.00  0.00    +0.224 C 
ATOM     17  O   ARG A   1      -6.636  17.434  48.525  0.00  0.00    -0.287 OA
ENDBRANCH  13  16
ENDBRANCH  12  13
ENDBRANCH  11  12
ENDBRANCH  10  11
ENDBRANCH   1  10
TORSDOF 6
REMARK  Name = ../refined-set-2016/1siv/1siv_pocket.pdb
REMARK  217 active torsions:
REMARK  status: ('A' for Active; 'I' for Inactive)
REMARK    1  A    between atoms: _1  and  _3
REMARK    2  A    between atoms: _3  and  _4
REMARK    3  A    between atoms: _3  and  _6
REMARK    4  A    between atoms: _6  and  _7
REMARK    5  A    between atoms: _7  and  _8
REMARK    6  A    between atoms: _8  and  _9
REMARK    7  A    between atoms: _18  and  _20
REMARK    8  A    between atoms: _20  and  _21
REMARK    9  A    between atoms: _20  and  _23
REMARK   10  A    between atoms: _23  and  _24
REMARK   11  A    between atoms: _27  and  _29
REMARK   12  A    between atoms: _29  and  _30
REMARK   13  A    between atoms: _29  and  _32
REMARK   14  A    between atoms: _32  and  _33
REMARK   15  A    between atoms: _36  and  _38
REMARK   16  A    between atoms: _38  and  _39
REMARK   17  A    between atoms: _38  and  _41
REMARK   18  A    between atoms: _41  and  _42
REMARK   19  A    between atoms: _45  and  _47
REMARK   20  A    between atoms: _47  and  _48
REMARK   21  A    between atoms: _47  and  _50
REMARK   22  A    between atoms: _50  and  _51
REMARK   23  A    between atoms: _54  and  _56
REMARK   24  A    between atoms: _56  and  _57
REMARK   25  A    between atoms: _59  and  _61
REMARK   26  A    between atoms: _61  and  _62
REMARK   27  A    between atoms: _65  and  _67
REMARK   28  A    between atoms: _67  and  _68
REMARK   29  A    between atoms: _67  and  _70
REMARK   30  A    between atoms: _70  and  _71
REMARK   31  A    between atoms: _74  and  _76
REMARK   32  A    between atoms: _76  and  _77
REMARK   33  A    between atoms: _76  and  _79
REMARK   34  A    between atoms: _79  and  _80
REMARK   35  A    between atoms: _83  and  _85
REMARK   36  A    between atoms: _85  and  _86
REMARK   37  A    between atoms: _85  and  _88
REMARK   38  A    between atoms: _88  and  _89
REMARK   39  A    between atoms: _91  and  _93
REMARK   40  A    between atoms: _93  and  _94
REMARK   41  A    between atoms: _93  and  _96
REMARK   42  A    between atoms: _96  and  _97
REMARK   43  A    between atoms: _100  and  _102
REMARK   44  A    between atoms: _102  and  _103
REMARK   45  A    between atoms: _102  and  _105
REMARK   46  A    between atoms: _105  and  _106
REMARK   47  A    between atoms: _106  and  _107
REMARK   48  A    between atoms: _107  and  _108
REMARK   49  A    between atoms: _108  and  _109
REMARK   50  A    between atoms: _113  and  _115
REMARK   51  A    between atoms: _115  and  _116
REMARK   52  A    between atoms: _115  and  _118
REMARK   53  A    between atoms: _118  and  _119
REMARK   54  A    between atoms: _122  and  _124
REMARK   55  A    between atoms: _124  and  _125
REMARK   56  A    between atoms: _124  and  _127
REMARK   57  A    between atoms: _130  and  _132
REMARK   58  A    between atoms: _132  and  _133
REMARK   59  A    between atoms: _135  and  _137
REMARK   60  A    between atoms: _137  and  _138
REMARK   61  A    between atoms: _140  and  _142
REMARK   62  A    between atoms: _142  and  _143
REMARK   63  A    between atoms: _142  and  _145
REMARK   64  A    between atoms: _145  and  _146
REMARK   65  A    between atoms: _149  and  _151
REMARK   66  A    between atoms: _151  and  _152
REMARK   67  A    between atoms: _154  and  _156
REMARK   68  A    between atoms: _156  and  _157
REMARK   69  A    between atoms: _159  and  _161
REMARK   70  A    between atoms: _161  and  _162
REMARK   71  A    between atoms: _161  and  _164
REMARK   72  A    between atoms: _164  and  _165
REMARK   73  A    between atoms: _171  and  _173
REMARK   74  A    between atoms: _173  and  _174
REMARK   75  A    between atoms: _173  and  _176
REMARK   76  A    between atoms: _176  and  _177
REMARK   77  A    between atoms: _180  and  _182
REMARK   78  A    between atoms: _182  and  _183
REMARK   79  A    between atoms: _182  and  _185
REMARK   80  A    between atoms: _185  and  _186
REMARK   81  A    between atoms: _189  and  _191
REMARK   82  A    between atoms: _191  and  _192
REMARK   83  A    between atoms: _191  and  _194
REMARK   84  A    between atoms: _194  and  _195
REMARK   85  A    between atoms: _195  and  _196
REMARK   86  A    between atoms: _198  and  _200
REMARK   87  A    between atoms: _200  and  _201
REMARK   88  A    between atoms: _200  and  _203
REMARK   89  A    between atoms: _203  and  _204
REMARK   90  A    between atoms: _208  and  _209
REMARK   91  A    between atoms: _214  and  _216
REMARK   92  A    between atoms: _216  and  _217
REMARK   93  A    between atoms: _216  and  _219
REMARK   94  A    between atoms: _219  and  _220
REMARK   95  A    between atoms: _223  and  _225
REMARK   96  A    between atoms: _225  and  _226
REMARK   97  A    between atoms: _225  and  _228
REMARK   98  A    between atoms: _228  and  _229
REMARK   99  A    between atoms: _234  and  _236
REMARK  100  A    between atoms: _236  and  _237
REMARK  101  A    between atoms: _236  and  _239
REMARK  102  A    between atoms: _239  and  _240
REMARK  103  A    between atoms: _243  and  _245
REMARK  104  A    between atoms: _245  and  _246
REMARK  105  A    between atoms: _248  and  _250
REMARK  106  A    between atoms: _250  and  _251
REMARK  107  A    between atoms: _250  and  _253
REMARK  108  A    between atoms: _253  and  _254
REMARK  109  A    between atoms: _254  and  _255
REMARK  110  A    between atoms: _255  and  _256
REMARK  111  A    between atoms: _265  and  _267
REMARK  112  A    between atoms: _267  and  _268
REMARK  113  A    between atoms: _267  and  _270
REMARK  114  A    between atoms: _270  and  _271
REMARK  115  A    between atoms: _271  and  _272
REMARK  116  A    between atoms: _272  and  _273
REMARK  117  A    between atoms: _282  and  _284
REMARK  118  A    between atoms: _284  and  _285
REMARK  119  A    between atoms: _284  and  _287
REMARK  120  A    between atoms: _287  and  _288
REMARK  121  A    between atoms: _291  and  _293
REMARK  122  A    between atoms: _293  and  _294
REMARK  123  A    between atoms: _293  and  _296
REMARK  124  A    between atoms: _296  and  _297
REMARK  125  A    between atoms: _300  and  _302
REMARK  126  A    between atoms: _302  and  _303
REMARK  127  A    between atoms: _302  and  _305
REMARK  128  A    between atoms: _305  and  _306
REMARK  129  A    between atoms: _309  and  _311
REMARK  130  A    between atoms: _311  and  _312
REMARK  131  A    between atoms: _311  and  _314
REMARK  132  A    between atoms: _314  and  _315
REMARK  133  A    between atoms: _318  and  _320
REMARK  134  A    between atoms: _320  and  _321
REMARK  135  A    between atoms: _323  and  _325
REMARK  136  A    between atoms: _325  and  _326
REMARK  137  A    between atoms: _329  and  _331
REMARK  138  A    between atoms: _331  and  _332
REMARK  139  A    between atoms: _331  and  _334
REMARK  140  A    between atoms: _334  and  _335
REMARK  141  A    between atoms: _338  and  _340
REMARK  142  A    between atoms: _340  and  _341
REMARK  143  A    between atoms: _340  and  _343
REMARK  144  A    between atoms: _343  and  _344
REMARK  145  A    between atoms: _347  and  _349
REMARK  146  A    between atoms: _349  and  _350
REMARK  147  A    between atoms: _349  and  _352
REMARK  148  A    between atoms: _352  and  _353
REMARK  149  A    between atoms: _355  and  _357
REMARK  150  A    between atoms: _357  and  _358
REMARK  151  A    between atoms: _357  and  _360
REMARK  152  A    between atoms: _360  and  _361
REMARK  153  A    between atoms: _364  and  _366
REMARK  154  A    between atoms: _366  and  _367
REMARK  155  A    between atoms: _366  and  _369
REMARK  156  A    between atoms: _369  and  _370
REMARK  157  A    between atoms: _373  and  _375
REMARK  158  A    between atoms: _375  and  _376
REMARK  159  A    between atoms: _375  and  _378
REMARK  160  A    between atoms: _381  and  _383
REMARK  161  A    between atoms: _383  and  _384
REMARK  162  A    between atoms: _386  and  _388
REMARK  163  A    between atoms: _388  and  _389
REMARK  164  A    between atoms: _391  and  _393
REMARK  165  A    between atoms: _393  and  _394
REMARK  166  A    between atoms: _393  and  _396
REMARK  167  A    between atoms: _396  and  _397
REMARK  168  A    between atoms: _400  and  _402
REMARK  169  A    between atoms: _402  and  _403
REMARK  170  A    between atoms: _405  and  _407
REMARK  171  A    between atoms: _407  and  _408
REMARK  172  A    between atoms: _410  and  _412
REMARK  173  A    between atoms: _412  and  _413
REMARK  174  A    between atoms: _412  and  _415
REMARK  175  A    between atoms: _415  and  _416
REMARK  176  A    between atoms: _422  and  _424
REMARK  177  A    between atoms: _424  and  _425
REMARK  178  A    between atoms: _424  and  _427
REMARK  179  A    between atoms: _427  and  _428
REMARK  180  A    between atoms: _431  and  _433
REMARK  181  A    between atoms: _433  and  _434
REMARK  182  A    between atoms: _433  and  _436
REMARK  183  A    between atoms: _436  and  _437
REMARK  184  A    between atoms: _437  and  _438
REMARK  185  A    between atoms: _440  and  _442
REMARK  186  A    between atoms: _442  and  _443
REMARK  187  A    between atoms: _442  and  _445
REMARK  188  A    between atoms: _445  and  _446
REMARK  189  A    between atoms: _450  and  _451
REMARK  190  A    between atoms: _456  and  _458
REMARK  191  A    between atoms: _458  and  _459
REMARK  192  A    between atoms: _458  and  _461
REMARK  193  A    between atoms: _461  and  _462
REMARK  194  A    between atoms: _465  and  _467
REMARK  195  A    between atoms: _467  and  _468
REMARK  196  A    between atoms: _467  and  _470
REMARK  197  A    between atoms: _470  and  _471
REMARK  198  A    between atoms: _476  and  _478
REMARK  199  A    between atoms: _478  and  _479
REMARK  200  A    between atoms: _478  and  _481
REMARK  201  A    between atoms: _481  and  _482
REMARK  202  A    between atoms: _485  and  _487
REMARK  203  A    between atoms: _487  and  _488
REMARK  204  A    between atoms: _487  and  _490
REMARK  205  A    between atoms: _490  and  _491
REMARK  206  A    between atoms: _497  and  _499
REMARK  207  A    between atoms: _499  and  _500
REMARK  208  A    between atoms: _502  and  _504
REMARK  209  A    between atoms: _504  and  _505
REMARK  210  A    between atoms: _504  and  _507
REMARK  211  A    between atoms: _507  and  _508
REMARK  212  A    between atoms: _508  and  _509
REMARK  213  A    between atoms: _509  and  _510
REMARK  214  A    between atoms: _519  and  _521
REMARK  215  A    between atoms: _521  and  _522
REMARK  216  A    between atoms: _521  and  _524
REMARK  217  A    between atoms: _524  and  _525
REMARK                            x       y       z     vdW  Elec       q    Type
REMARK                         _______ _______ _______ _____ _____    ______ ____
ROOT
ATOM      1  C   GLY A   5       5.089  17.542  39.356  0.00  0.00    +0.243 C 
ATOM      2  N   ALA A   6       4.170  18.287  38.773  0.00  0.00    -0.297 N 
ATOM      3  H   ALA A   6       3.726  19.063  39.304  0.00  0.00    +0.150 HD
ATOM      4  O   GLY A   5       5.574  16.572  38.759  0.00  0.00    -0.273 OA
ENDROOT
BRANCH   2   5
ATOM      5  CA  ALA A   6       3.776  18.041  37.420  0.00  0.00    +0.149 C 
ATOM      6  CB  ALA A   6       2.306  17.704  37.311  0.00  0.00    +0.031 C 
BRANCH   5   7
ATOM      7  C   ALA A   6       4.025  19.308  36.646  0.00  0.00    +0.241 C 
ATOM      8  O   ALA A   6       3.647  20.406  37.044  0.00  0.00    -0.273 OA
ATOM      9  N   ASP A   7       4.753  19.135  35.557  0.00  0.00    -0.297 N 
ATOM     10  H   ASP A   7       5.100  18.182  35.329  0.00  0.00    +0.150 HD
BRANCH   9  11
ATOM     11  CA  ASP A   7       5.078  20.219  34.682  0.00  0.00    +0.160 C 
BRANCH  11  12
ATOM     12  C   ASP A   7       3.915  20.437  33.759  0.00  0.00    +0.241 C 
ATOM     13  N   ASP A   8       3.144  19.408  33.431  0.00  0.00    -0.297 N 
ATOM     14  H   ASP A   8       3.390  18.500  33.874  0.00  0.00    +0.150 HD
ATOM     15  O   ASP A   7       3.707  21.567  33.391  0.00  0.00    -0.273 OA
BRANCH  13  16
ATOM     16  CA  ASP A   8       1.994  19.383  32.528  0.00  0.00    +0.160 C 
BRANCH  16  17
ATOM     17  C   ASP A   8       0.701  19.062  33.244  0.00  0.00    +0.241 C 
ATOM     18  O   ASP A   8       0.755  18.520  34.352  0.00  0.00    -0.273 OA
ATOM     19  N   SER A   9      -0.440  19.346  32.609  0.00  0.00    -0.295 N 
ATOM     20  H   SER A   9      -0.380  19.783  31.667  0.00  0.00    +0.150 HD
BRANCH  19  21
ATOM     21  CA  SER A   9      -1.762  19.080  33.156  0.00  0.00    +0.178 C 
BRANCH  21  22
ATOM     22  C   SER A   9      -2.377  17.923  32.384  0.00  0.00    +0.243 C 
ATOM     23  N   ILE A  10      -2.834  16.819  32.972  0.00  0.00    -0.298 N 
ATOM     24  H   ILE A  10      -2.795  16.753  34.009  0.00  0.00    +0.150 HD
ATOM     25  O   SER A   9      -2.479  18.054  31.173  0.00  0.00    -0.273 OA
BRANCH  23  26
ATOM     26  CA  ILE A  10      -3.389  15.694  32.215  0.00  0.00    +0.137 C 
BRANCH  26  27
ATOM     27  CB  ILE A  10      -2.547  14.337  32.231  0.00  0.00    +0.026 C 
ATOM     28  CG2 ILE A  10      -2.828  13.438  31.032  0.00  0.00    +0.002 C 
BRANCH  27  29
ATOM     29  CG1 ILE A  10      -1.101  14.643  32.140  0.00  0.00    +0.002 C 
ATOM     30  CD1 ILE A  10      -0.639  14.895  33.586  0.00  0.00    +0.000 C 
ENDBRANCH  27  29
ENDBRANCH  26  27
BRANCH  26  31
ATOM     31  C   ILE A  10      -4.663  15.389  32.909  0.00  0.00    +0.227 C 
ATOM     32  O   ILE A  10      -4.717  15.157  34.118  0.00  0.00    -0.286 OA
ENDBRANCH  26  31
ENDBRANCH  23  26
ENDBRANCH  21  22
BRANCH  21  33
ATOM     33  CB  SER A   9      -2.608  20.313  33.032  0.00  0.00    +0.166 C 
BRANCH  33  34
ATOM     34  OG  SER A   9      -1.885  21.270  33.769  0.00  0.00    -0.380 OA
ATOM     35  H   SER A   9      -0.987  21.383  33.369  0.00  0.00    +0.211 HD
ENDBRANCH  33  34
ENDBRANCH  21  33
ENDBRANCH  19  21
ENDBRANCH  16  17
BRANCH  16  36
ATOM     36  CB  ASP A   8       2.228  18.297  31.456  0.00  0.00    +0.143 C 
BRANCH  36  37
ATOM     37  CG  ASP A   8       3.618  18.343  30.823  0.00  0.00    +0.367 C 
ATOM     38  OD2 ASP A   8       4.278  17.320  30.652  0.00  0.00    -0.246 OA
ATOM     39  OD1 ASP A   8       4.081  19.436  30.518  0.00  0.00    -0.246 OA
ENDBRANCH  36  37
ENDBRANCH  16  36
ENDBRANCH  13  16
ENDBRANCH  11  12
BRANCH  11  40
ATOM     40  CB  ASP A   7       6.200  19.959  33.744  0.00  0.00    +0.143 C 
BRANCH  40  41
ATOM     41  CG  ASP A   7       7.426  19.322  34.334  0.00  0.00    +0.367 C 
ATOM     42  OD2 ASP A   7       8.172  19.984  35.038  0.00  0.00    -0.246 OA
ATOM     43  OD1 ASP A   7       7.643  18.161  34.047  0.00  0.00    -0.246 OA
ENDBRANCH  40  41
ENDBRANCH  11  40
ENDBRANCH   9  11
ENDBRANCH   5   7
ENDBRANCH   2   5
BRANCH   1  44
ATOM     44  CA  GLY A   5       5.465  17.886  40.810  0.00  0.00    +0.176 C 
BRANCH  44  46
ATOM     45  C   THR A   4       4.705  20.114  41.383  0.00  0.00    +0.243 C 
ATOM     46  N   GLY A   5       4.539  18.794  41.443  0.00  0.00    -0.295 N 
ATOM     47  H   GLY A   5       3.722  18.408  41.958  0.00  0.00    +0.150 HD
ATOM     48  O   THR A   4       5.684  20.601  40.851  0.00  0.00    -0.273 OA
BRANCH  45  49
ATOM     49  CA  THR A   4       3.654  21.044  41.957  0.00  0.00    +0.176 C 
BRANCH  49  51
ATOM     50  C   ASP A   3       1.610  20.023  41.111  0.00  0.00    +0.241 C 
ATOM     51  N   THR A   4       2.378  20.381  42.157  0.00  0.00    -0.295 N 
ATOM     52  H   THR A   4       2.052  20.179  43.124  0.00  0.00    +0.150 HD
ATOM     53  O   ASP A   3       2.027  20.081  39.947  0.00  0.00    -0.273 OA
BRANCH  50  54
ATOM     54  CA  ASP A   3       0.286  19.325  41.455  0.00  0.00    +0.160 C 
BRANCH  54  57
ATOM     55  C   LEU A   2      -1.760  20.107  42.478  0.00  0.00    +0.241 C 
ATOM     56  O   LEU A   2      -1.405  19.795  43.635  0.00  0.00    -0.273 OA
ATOM     57  N   ASP A   3      -1.001  19.956  41.395  0.00  0.00    -0.297 N 
ATOM     58  H   ASP A   3      -1.351  20.305  40.480  0.00  0.00    +0.150 HD
BRANCH  55  59
ATOM     59  CA  LEU A   2      -3.099  20.755  42.130  0.00  0.00    +0.149 C 
BRANCH  59  61
ATOM     60  C   LEU A   1      -4.285  18.690  41.562  0.00  0.00    +0.238 C 
ATOM     61  N   LEU A   2      -4.049  19.688  42.425  0.00  0.00    -0.297 N 
ATOM     62  H   LEU A   2      -4.558  19.702  43.332  0.00  0.00    +0.150 HD
ATOM     63  O   LEU A   1      -3.708  18.653  40.467  0.00  0.00    -0.274 OA
BRANCH  60  64
ATOM     64  CA  LEU A   1      -5.269  17.579  41.898  0.00  0.00    +0.145 C 
BRANCH  64  65
ATOM     65  N   LEU A   1      -6.271  17.502  40.875  0.00  0.00    -0.238 NA
ATOM     66  H   LEU A   1      -6.049  16.965  40.012  0.00  0.00    +0.142 HD
ENDBRANCH  64  65
BRANCH  64  67
ATOM     67  CB  LEU A   1      -4.547  16.262  41.938  0.00  0.00    +0.026 C 
BRANCH  67  68
ATOM     68  CG  LEU A   1      -3.948  15.574  43.137  0.00  0.00    +0.002 C 
ATOM     69  CD2 LEU A   1      -3.401  16.523  44.137  0.00  0.00    +0.000 C 
ATOM     70  CD1 LEU A   1      -2.817  14.742  42.644  0.00  0.00    +0.000 C 
ENDBRANCH  67  68
ENDBRANCH  64  67
ENDBRANCH  60  64
ENDBRANCH  59  61
BRANCH  59  71
ATOM     71  CB  LEU A   2      -3.375  22.019  42.994  0.00  0.00    +0.029 C 
BRANCH  71  72
ATOM     72  CG  LEU A   2      -4.586  23.034  42.746  0.00  0.00    +0.002 C 
ATOM     73  CD2 LEU A   2      -5.445  23.053  43.979  0.00  0.00    +0.000 C 
ATOM     74  CD1 LEU A   2      -5.452  22.672  41.574  0.00  0.00    +0.000 C 
ENDBRANCH  71  72
ENDBRANCH  59  71
ENDBRANCH  55  59
ENDBRANCH  54  57
BRANCH  54  75
ATOM     75  CB  ASP A   3       0.033  18.051  40.632  0.00  0.00    +0.143 C 
BRANCH  75  76
ATOM     76  CG  ASP A   3       1.012  16.903  40.758  0.00  0.00    +0.367 C 
ATOM     77  OD2 ASP A   3       2.127  17.084  41.213  0.00  0.00    -0.246 OA
ATOM     78  OD1 ASP A   3       0.652  15.796  40.386  0.00  0.00    -0.246 OA
ENDBRANCH  75  76
ENDBRANCH  54  75
ENDBRANCH  50  54
ENDBRANCH  49  51
BRANCH  49  79
ATOM     79  CB  THR A   4       4.156  21.679  43.301  0.00  0.00    +0.137 C 
ATOM     80  CG2 THR A   4       3.174  22.766  43.734  0.00  0.00    +0.034 C 
BRANCH  79  81
ATOM     81  OG1 THR A   4       4.265  20.700  44.325  0.00  0.00    -0.382 OA
ATOM     82  HG1 THR A   4       4.909  20.002  44.046  0.00  0.00    +0.210 HD
ENDBRANCH  79  81
ENDBRANCH  49  79
ENDBRANCH  45  49
ENDBRANCH  44  46
ENDBRANCH   1  44
TORSDOF 36
REMARK  Name = ../refined-set-2016/1siv/1siv_pocket.pdb
REMARK  217 active torsions:
REMARK  status: ('A' for Active; 'I' for Inactive)
REMARK    1  A    between atoms: _1  and  _3
REMARK    2  A    between atoms: _3  and  _4
REMARK    3  A    between atoms: _3  and  _6
REMARK    4  A    between atoms: _6  and  _7
REMARK    5  A    between atoms: _7  and  _8
REMARK    6  A    between atoms: _8  and  _9
REMARK    7  A    between atoms: _18  and  _20
REMARK    8  A    between atoms: _20  and  _21
REMARK    9  A    between atoms: _20  and  _23
REMARK   10  A    between atoms: _23  and  _24
REMARK   11  A    between atoms: _27  and  _29
REMARK   12  A    between atoms: _29  and  _30
REMARK   13  A    between atoms: _29  and  _32
REMARK   14  A    between atoms: _32  and  _33
REMARK   15  A    between atoms: _36  and  _38
REMARK   16  A    between atoms: _38  and  _39
REMARK   17  A    between atoms: _38  and  _41
REMARK   18  A    between atoms: _41  and  _42
REMARK   19  A    between atoms: _45  and  _47
REMARK   20  A    between atoms: _47  and  _48
REMARK   21  A    between atoms: _47  and  _50
REMARK   22  A    between atoms: _50  and  _51
REMARK   23  A    between atoms: _54  and  _56
REMARK   24  A    between atoms: _56  and  _57
REMARK   25  A    between atoms: _59  and  _61
REMARK   26  A    between atoms: _61  and  _62
REMARK   27  A    between atoms: _65  and  _67
REMARK   28  A    between atoms: _67  and  _68
REMARK   29  A    between atoms: _67  and  _70
REMARK   30  A    between atoms: _70  and  _71
REMARK   31  A    between atoms: _74  and  _76
REMARK   32  A    between atoms: _76  and  _77
REMARK   33  A    between atoms: _76  and  _79
REMARK   34  A    between atoms: _79  and  _80
REMARK   35  A    between atoms: _83  and  _85
REMARK   36  A    between atoms: _85  and  _86
REMARK   37  A    between atoms: _85  and  _88
REMARK   38  A    between atoms: _88  and  _89
REMARK   39  A    between atoms: _91  and  _93
REMARK   40  A    between atoms: _93  and  _94
REMARK   41  A    between atoms: _93  and  _96
REMARK   42  A    between atoms: _96  and  _97
REMARK   43  A    between atoms: _100  and  _102
REMARK   44  A    between atoms: _102  and  _103
REMARK   45  A    between atoms: _102  and  _105
REMARK   46  A    between atoms: _105  and  _106
REMARK   47  A    between atoms: _106  and  _107
REMARK   48  A    between atoms: _107  and  _108
REMARK   49  A    between atoms: _108  and  _109
REMARK   50  A    between atoms: _113  and  _115
REMARK   51  A    between atoms: _115  and  _116
REMARK   52  A    between atoms: _115  and  _118
REMARK   53  A    between atoms: _118  and  _119
REMARK   54  A    between atoms: _122  and  _124
REMARK   55  A    between atoms: _124  and  _125
REMARK   56  A    between atoms: _124  and  _127
REMARK   57  A    between atoms: _130  and  _132
REMARK   58  A    between atoms: _132  and  _133
REMARK   59  A    between atoms: _135  and  _137
REMARK   60  A    between atoms: _137  and  _138
REMARK   61  A    between atoms: _140  and  _142
REMARK   62  A    between atoms: _142  and  _143
REMARK   63  A    between atoms: _142  and  _145
REMARK   64  A    between atoms: _145  and  _146
REMARK   65  A    between atoms: _149  and  _151
REMARK   66  A    between atoms: _151  and  _152
REMARK   67  A    between atoms: _154  and  _156
REMARK   68  A    between atoms: _156  and  _157
REMARK   69  A    between atoms: _159  and  _161
REMARK   70  A    between atoms: _161  and  _162
REMARK   71  A    between atoms: _161  and  _164
REMARK   72  A    between atoms: _164  and  _165
REMARK   73  A    between atoms: _171  and  _173
REMARK   74  A    between atoms: _173  and  _174
REMARK   75  A    between atoms: _173  and  _176
REMARK   76  A    between atoms: _176  and  _177
REMARK   77  A    between atoms: _180  and  _182
REMARK   78  A    between atoms: _182  and  _183
REMARK   79  A    between atoms: _182  and  _185
REMARK   80  A    between atoms: _185  and  _186
REMARK   81  A    between atoms: _189  and  _191
REMARK   82  A    between atoms: _191  and  _192
REMARK   83  A    between atoms: _191  and  _194
REMARK   84  A    between atoms: _194  and  _195
REMARK   85  A    between atoms: _195  and  _196
REMARK   86  A    between atoms: _198  and  _200
REMARK   87  A    between atoms: _200  and  _201
REMARK   88  A    between atoms: _200  and  _203
REMARK   89  A    between atoms: _203  and  _204
REMARK   90  A    between atoms: _208  and  _209
REMARK   91  A    between atoms: _214  and  _216
REMARK   92  A    between atoms: _216  and  _217
REMARK   93  A    between atoms: _216  and  _219
REMARK   94  A    between atoms: _219  and  _220
REMARK   95  A    between atoms: _223  and  _225
REMARK   96  A    between atoms: _225  and  _226
REMARK   97  A    between atoms: _225  and  _228
REMARK   98  A    between atoms: _228  and  _229
REMARK   99  A    between atoms: _234  and  _236
REMARK  100  A    between atoms: _236  and  _237
REMARK  101  A    between atoms: _236  and  _239
REMARK  102  A    between atoms: _239  and  _240
REMARK  103  A    between atoms: _243  and  _245
REMARK  104  A    between atoms: _245  and  _246
REMARK  105  A    between atoms: _248  and  _250
REMARK  106  A    between atoms: _250  and  _251
REMARK  107  A    between atoms: _250  and  _253
REMARK  108  A    between atoms: _253  and  _254
REMARK  109  A    between atoms: _254  and  _255
REMARK  110  A    between atoms: _255  and  _256
REMARK  111  A    between atoms: _265  and  _267
REMARK  112  A    between atoms: _267  and  _268
REMARK  113  A    between atoms: _267  and  _270
REMARK  114  A    between atoms: _270  and  _271
REMARK  115  A    between atoms: _271  and  _272
REMARK  116  A    between atoms: _272  and  _273
REMARK  117  A    between atoms: _282  and  _284
REMARK  118  A    between atoms: _284  and  _285
REMARK  119  A    between atoms: _284  and  _287
REMARK  120  A    between atoms: _287  and  _288
REMARK  121  A    between atoms: _291  and  _293
REMARK  122  A    between atoms: _293  and  _294
REMARK  123  A    between atoms: _293  and  _296
REMARK  124  A    between atoms: _296  and  _297
REMARK  125  A    between atoms: _300  and  _302
REMARK  126  A    between atoms: _302  and  _303
REMARK  127  A    between atoms: _302  and  _305
REMARK  128  A    between atoms: _305  and  _306
REMARK  129  A    between atoms: _309  and  _311
REMARK  130  A    between atoms: _311  and  _312
REMARK  131  A    between atoms: _311  and  _314
REMARK  132  A    between atoms: _314  and  _315
REMARK  133  A    between atoms: _318  and  _320
REMARK  134  A    between atoms: _320  and  _321
REMARK  135  A    between atoms: _323  and  _325
REMARK  136  A    between atoms: _325  and  _326
REMARK  137  A    between atoms: _329  and  _331
REMARK  138  A    between atoms: _331  and  _332
REMARK  139  A    between atoms: _331  and  _334
REMARK  140  A    between atoms: _334  and  _335
REMARK  141  A    between atoms: _338  and  _340
REMARK  142  A    between atoms: _340  and  _341
REMARK  143  A    between atoms: _340  and  _343
REMARK  144  A    between atoms: _343  and  _344
REMARK  145  A    between atoms: _347  and  _349
REMARK  146  A    between atoms: _349  and  _350
REMARK  147  A    between atoms: _349  and  _352
REMARK  148  A    between atoms: _352  and  _353
REMARK  149  A    between atoms: _355  and  _357
REMARK  150  A    between atoms: _357  and  _358
REMARK  151  A    between atoms: _357  and  _360
REMARK  152  A    between atoms: _360  and  _361
REMARK  153  A    between atoms: _364  and  _366
REMARK  154  A    between atoms: _366  and  _367
REMARK  155  A    between atoms: _366  and  _369
REMARK  156  A    between atoms: _369  and  _370
REMARK  157  A    between atoms: _373  and  _375
REMARK  158  A    between atoms: _375  and  _376
REMARK  159  A    between atoms: _375  and  _378
REMARK  160  A    between atoms: _381  and  _383
REMARK  161  A    between atoms: _383  and  _384
REMARK  162  A    between atoms: _386  and  _388
REMARK  163  A    between atoms: _388  and  _389
REMARK  164  A    between atoms: _391  and  _393
REMARK  165  A    between atoms: _393  and  _394
REMARK  166  A    between atoms: _393  and  _396
REMARK  167  A    between atoms: _396  and  _397
REMARK  168  A    between atoms: _400  and  _402
REMARK  169  A    between atoms: _402  and  _403
REMARK  170  A    between atoms: _405  and  _407
REMARK  171  A    between atoms: _407  and  _408
REMARK  172  A    between atoms: _410  and  _412
REMARK  173  A    between atoms: _412  and  _413
REMARK  174  A    between atoms: _412  and  _415
REMARK  175  A    between atoms: _415  and  _416
REMARK  176  A    between atoms: _422  and  _424
REMARK  177  A    between atoms: _424  and  _425
REMARK  178  A    between atoms: _424  and  _427
REMARK  179  A    between atoms: _427  and  _428
REMARK  180  A    between atoms: _431  and  _433
REMARK  181  A    between atoms: _433  and  _434
REMARK  182  A    between atoms: _433  and  _436
REMARK  183  A    between atoms: _436  and  _437
REMARK  184  A    between atoms: _437  and  _438
REMARK  185  A    between atoms: _440  and  _442
REMARK  186  A    between atoms: _442  and  _443
REMARK  187  A    between atoms: _442  and  _445
REMARK  188  A    between atoms: _445  and  _446
REMARK  189  A    between atoms: _450  and  _451
REMARK  190  A    between atoms: _456  and  _458
REMARK  191  A    between atoms: _458  and  _459
REMARK  192  A    between atoms: _458  and  _461
REMARK  193  A    between atoms: _461  and  _462
REMARK  194  A    between atoms: _465  and  _467
REMARK  195  A    between atoms: _467  and  _468
REMARK  196  A    between atoms: _467  and  _470
REMARK  197  A    between atoms: _470  and  _471
REMARK  198  A    between atoms: _476  and  _478
REMARK  199  A    between atoms: _478  and  _479
REMARK  200  A    between atoms: _478  and  _481
REMARK  201  A    between atoms: _481  and  _482
REMARK  202  A    between atoms: _485  and  _487
REMARK  203  A    between atoms: _487  and  _488
REMARK  204  A    between atoms: _487  and  _490
REMARK  205  A    between atoms: _490  and  _491
REMARK  206  A    between atoms: _497  and  _499
REMARK  207  A    between atoms: _499  and  _500
REMARK  208  A    between atoms: _502  and  _504
REMARK  209  A    between atoms: _504  and  _505
REMARK  210  A    between atoms: _504  and  _507
REMARK  211  A    between atoms: _507  and  _508
REMARK  212  A    between atoms: _508  and  _509
REMARK  213  A    between atoms: _509  and  _510
REMARK  214  A    between atoms: _519  and  _521
REMARK  215  A    between atoms: _521  and  _522
REMARK  216  A    between atoms: _521  and  _524
REMARK  217  A    between atoms: _524  and  _525
REMARK                            x       y       z     vdW  Elec       q    Type
REMARK                         _______ _______ _______ _____ _____    ______ ____
ROOT
ATOM      1  CA  ILE A   5       6.072   7.552  38.157  0.00  0.00    +0.149 C 
ENDROOT
BRANCH   1   3
ATOM      2  C   GLY A   4       5.975   8.817  36.061  0.00  0.00    +0.243 C 
ATOM      3  N   ILE A   5       5.456   8.528  37.265  0.00  0.00    -0.297 N 
ATOM      4  H   ILE A   5       4.589   9.014  37.571  0.00  0.00    +0.150 HD
ATOM      5  O   GLY A   4       7.063   8.343  35.689  0.00  0.00    -0.273 OA
BRANCH   2   6
ATOM      6  CA  GLY A   4       5.193   9.826  35.213  0.00  0.00    +0.176 C 
BRANCH   6   8
ATOM      7  C   GLY A   3       5.796  10.894  33.069  0.00  0.00    +0.243 C 
ATOM      8  N   GLY A   4       5.657   9.811  33.832  0.00  0.00    -0.295 N 
ATOM      9  H   GLY A   4       5.897   8.890  33.412  0.00  0.00    +0.150 HD
ATOM     10  O   GLY A   3       5.590  12.063  33.465  0.00  0.00    -0.273 OA
BRANCH   7  11
ATOM     11  CA  GLY A   3       6.273  10.620  31.645  0.00  0.00    +0.176 C 
BRANCH  11  13
ATOM     12  C   VAL A   2       4.469  11.151  30.059  0.00  0.00    +0.241 C 
ATOM     13  N   GLY A   3       5.625  11.454  30.628  0.00  0.00    -0.295 N 
ATOM     14  H   GLY A   3       6.100  12.332  30.338  0.00  0.00    +0.150 HD
ATOM     15  O   VAL A   2       3.896  10.079  30.249  0.00  0.00    -0.273 OA
BRANCH  12  16
ATOM     16  CA  VAL A   2       3.927  12.206  29.092  0.00  0.00    +0.148 C 
BRANCH  16  18
ATOM     17  C   ILE A   1       4.239  12.122  26.695  0.00  0.00    +0.238 C 
ATOM     18  N   VAL A   2       3.677  11.596  27.785  0.00  0.00    -0.297 N 
ATOM     19  H   VAL A   2       3.066  10.758  27.706  0.00  0.00    +0.150 HD
ATOM     20  O   ILE A   1       4.875  13.178  26.794  0.00  0.00    -0.274 OA
BRANCH  17  21
ATOM     21  CA  ILE A   1       4.058  11.560  25.292  0.00  0.00    +0.145 C 
BRANCH  21  22
ATOM     22  N   ILE A   1       3.880  12.719  24.426  0.00  0.00    -0.238 NA
ATOM     23  H   ILE A   1       4.636  13.429  24.345  0.00  0.00    +0.142 HD
ENDBRANCH  21  22
BRANCH  21  24
ATOM     24  CB  ILE A   1       5.274  10.803  24.701  0.00  0.00    +0.025 C 
ATOM     25  CG2 ILE A   1       6.546  10.879  25.530  0.00  0.00    +0.002 C 
BRANCH  24  26
ATOM     26  CG1 ILE A   1       4.832   9.367  24.546  0.00  0.00    +0.002 C 
ATOM     27  CD1 ILE A   1       4.696   8.481  25.836  0.00  0.00    +0.000 C 
ENDBRANCH  24  26
ENDBRANCH  21  24
ENDBRANCH  17  21
ENDBRANCH  16  18
BRANCH  16  28
ATOM     28  CB  VAL A   2       2.606  12.861  29.654  0.00  0.00    +0.027 C 
ATOM     29  CG2 VAL A   2       2.871  13.650  30.954  0.00  0.00    +0.002 C 
ATOM     30  CG1 VAL A   2       2.098  13.894  28.670  0.00  0.00    +0.002 C 
ENDBRANCH  16  28
ENDBRANCH  12  16
ENDBRANCH  11  13
ENDBRANCH   7  11
ENDBRANCH   6   8
ENDBRANCH   2   6
ENDBRANCH   1   3
BRANCH   1  31
ATOM     31  C   ILE A   5       5.871   6.201  37.480  0.00  0.00    +0.241 C 
ATOM     32  N   GLY A   6       7.049   5.650  37.274  0.00  0.00    -0.295 N 
ATOM     33  H   GLY A   6       7.932   6.098  37.592  0.00  0.00    +0.150 HD
ATOM     34  O   ILE A   5       4.794   5.723  37.065  0.00  0.00    -0.273 OA
BRANCH  32  35
ATOM     35  CA  GLY A   6       7.038   4.388  36.580  0.00  0.00    +0.176 C 
BRANCH  35  36
ATOM     36  C   GLY A   6       6.386   4.373  35.182  0.00  0.00    +0.243 C 
ATOM     37  O   GLY A   6       5.619   3.447  34.961  0.00  0.00    -0.273 OA
ATOM     38  N   GLY A   7       6.598   5.317  34.247  0.00  0.00    -0.295 N 
ATOM     39  H   GLY A   7       7.062   6.213  34.498  0.00  0.00    +0.150 HD
BRANCH  38  40
ATOM     40  CA  GLY A   7       6.172   5.068  32.887  0.00  0.00    +0.176 C 
BRANCH  40  41
ATOM     41  C   GLY A   7       5.756   6.295  32.119  0.00  0.00    +0.243 C 
ATOM     42  O   GLY A   7       5.738   7.416  32.606  0.00  0.00    -0.273 OA
ATOM     43  N   PHE A   8       5.338   6.062  30.896  0.00  0.00    -0.297 N 
ATOM     44  H   PHE A   8       5.223   5.073  30.595  0.00  0.00    +0.150 HD
BRANCH  43  45
ATOM     45  CA  PHE A   8       5.029   7.105  29.946  0.00  0.00    +0.153 C 
BRANCH  45  46
ATOM     46  C   PHE A   8       3.687   6.760  29.397  0.00  0.00    +0.241 C 
ATOM     47  O   PHE A   8       3.415   5.566  29.327  0.00  0.00    -0.273 OA
ATOM     48  N   ILE A   9       2.815   7.706  29.058  0.00  0.00    -0.298 N 
ATOM     49  H   ILE A   9       3.081   8.701  29.203  0.00  0.00    +0.150 HD
BRANCH  48  50
ATOM     50  CA  ILE A   9       1.516   7.415  28.498  0.00  0.00    +0.137 C 
BRANCH  50  51
ATOM     51  C   ILE A   9       1.345   8.283  27.245  0.00  0.00    +0.227 C 
ATOM     52  O   ILE A   9       1.987   9.348  27.011  0.00  0.00    -0.286 OA
ENDBRANCH  50  51
BRANCH  50  53
ATOM     53  CB  ILE A   9       0.371   7.724  29.500  0.00  0.00    +0.026 C 
ATOM     54  CG2 ILE A   9       0.527   6.813  30.706  0.00  0.00    +0.002 C 
BRANCH  53  55
ATOM     55  CG1 ILE A   9       0.369   9.197  29.935  0.00  0.00    +0.002 C 
ATOM     56  CD1 ILE A   9      -1.082   9.579  30.332  0.00  0.00    +0.000 C 
ENDBRANCH  53  55
ENDBRANCH  50  53
ENDBRANCH  48  50
ENDBRANCH  45  46
BRANCH  45  57
ATOM     57  CB  PHE A   8       6.007   7.112  28.782  0.00  0.00    +0.055 C 
BRANCH  57  58
ATOM     58  CG  PHE A   8       7.357   7.680  29.184  0.00  0.00    -0.020 A 
ATOM     59  CD2 PHE A   8       8.346   6.849  29.692  0.00  0.00    -0.004 A 
ATOM     60  CE2 PHE A   8       9.561   7.386  30.096  0.00  0.00    -0.000 A 
ATOM     61  CZ  PHE A   8       9.784   8.740  29.991  0.00  0.00    -0.000 A 
ATOM     62  CE1 PHE A   8       8.799   9.566  29.481  0.00  0.00    -0.000 A 
ATOM     63  CD1 PHE A   8       7.577   9.054  29.071  0.00  0.00    -0.004 A 
ENDBRANCH  57  58
ENDBRANCH  45  57
ENDBRANCH  43  45
ENDBRANCH  40  41
ENDBRANCH  38  40
ENDBRANCH  35  36
ENDBRANCH  32  35
ENDBRANCH   1  31
BRANCH   1  64
ATOM     64  CB  ILE A   5       5.414   7.602  39.603  0.00  0.00    +0.027 C 
ATOM     65  CG2 ILE A   5       4.375   6.545  39.886  0.00  0.00    +0.002 C 
BRANCH  64  66
ATOM     66  CG1 ILE A   5       6.530   7.339  40.596  0.00  0.00    +0.002 C 
ATOM     67  CD1 ILE A   5       7.495   8.522  40.709  0.00  0.00    +0.000 C 
ENDBRANCH  64  66
ENDBRANCH   1  64
TORSDOF 27
REMARK  Name = ../refined-set-2016/1siv/1siv_pocket.pdb
REMARK  217 active torsions:
REMARK  status: ('A' for Active; 'I' for Inactive)
REMARK    1  A    between atoms: _1  and  _3
REMARK    2  A    between atoms: _3  and  _4
REMARK    3  A    between atoms: _3  and  _6
REMARK    4  A    between atoms: _6  and  _7
REMARK    5  A    between atoms: _7  and  _8
REMARK    6  A    between atoms: _8  and  _9
REMARK    7  A    between atoms: _18  and  _20
REMARK    8  A    between atoms: _20  and  _21
REMARK    9  A    between atoms: _20  and  _23
REMARK   10  A    between atoms: _23  and  _24
REMARK   11  A    between atoms: _27  and  _29
REMARK   12  A    between atoms: _29  and  _30
REMARK   13  A    between atoms: _29  and  _32
REMARK   14  A    between atoms: _32  and  _33
REMARK   15  A    between atoms: _36  and  _38
REMARK   16  A    between atoms: _38  and  _39
REMARK   17  A    between atoms: _38  and  _41
REMARK   18  A    between atoms: _41  and  _42
REMARK   19  A    between atoms: _45  and  _47
REMARK   20  A    between atoms: _47  and  _48
REMARK   21  A    between atoms: _47  and  _50
REMARK   22  A    between atoms: _50  and  _51
REMARK   23  A    between atoms: _54  and  _56
REMARK   24  A    between atoms: _56  and  _57
REMARK   25  A    between atoms: _59  and  _61
REMARK   26  A    between atoms: _61  and  _62
REMARK   27  A    between atoms: _65  and  _67
REMARK   28  A    between atoms: _67  and  _68
REMARK   29  A    between atoms: _67  and  _70
REMARK   30  A    between atoms: _70  and  _71
REMARK   31  A    between atoms: _74  and  _76
REMARK   32  A    between atoms: _76  and  _77
REMARK   33  A    between atoms: _76  and  _79
REMARK   34  A    between atoms: _79  and  _80
REMARK   35  A    between atoms: _83  and  _85
REMARK   36  A    between atoms: _85  and  _86
REMARK   37  A    between atoms: _85  and  _88
REMARK   38  A    between atoms: _88  and  _89
REMARK   39  A    between atoms: _91  and  _93
REMARK   40  A    between atoms: _93  and  _94
REMARK   41  A    between atoms: _93  and  _96
REMARK   42  A    between atoms: _96  and  _97
REMARK   43  A    between atoms: _100  and  _102
REMARK   44  A    between atoms: _102  and  _103
REMARK   45  A    between atoms: _102  and  _105
REMARK   46  A    between atoms: _105  and  _106
REMARK   47  A    between atoms: _106  and  _107
REMARK   48  A    between atoms: _107  and  _108
REMARK   49  A    between atoms: _108  and  _109
REMARK   50  A    between atoms: _113  and  _115
REMARK   51  A    between atoms: _115  and  _116
REMARK   52  A    between atoms: _115  and  _118
REMARK   53  A    between atoms: _118  and  _119
REMARK   54  A    between atoms: _122  and  _124
REMARK   55  A    between atoms: _124  and  _125
REMARK   56  A    between atoms: _124  and  _127
REMARK   57  A    between atoms: _130  and  _132
REMARK   58  A    between atoms: _132  and  _133
REMARK   59  A    between atoms: _135  and  _137
REMARK   60  A    between atoms: _137  and  _138
REMARK   61  A    between atoms: _140  and  _142
REMARK   62  A    between atoms: _142  and  _143
REMARK   63  A    between atoms: _142  and  _145
REMARK   64  A    between atoms: _145  and  _146
REMARK   65  A    between atoms: _149  and  _151
REMARK   66  A    between atoms: _151  and  _152
REMARK   67  A    between atoms: _154  and  _156
REMARK   68  A    between atoms: _156  and  _157
REMARK   69  A    between atoms: _159  and  _161
REMARK   70  A    between atoms: _161  and  _162
REMARK   71  A    between atoms: _161  and  _164
REMARK   72  A    between atoms: _164  and  _165
REMARK   73  A    between atoms: _171  and  _173
REMARK   74  A    between atoms: _173  and  _174
REMARK   75  A    between atoms: _173  and  _176
REMARK   76  A    between atoms: _176  and  _177
REMARK   77  A    between atoms: _180  and  _182
REMARK   78  A    between atoms: _182  and  _183
REMARK   79  A    between atoms: _182  and  _185
REMARK   80  A    between atoms: _185  and  _186
REMARK   81  A    between atoms: _189  and  _191
REMARK   82  A    between atoms: _191  and  _192
REMARK   83  A    between atoms: _191  and  _194
REMARK   84  A    between atoms: _194  and  _195
REMARK   85  A    between atoms: _195  and  _196
REMARK   86  A    between atoms: _198  and  _200
REMARK   87  A    between atoms: _200  and  _201
REMARK   88  A    between atoms: _200  and  _203
REMARK   89  A    between atoms: _203  and  _204
REMARK   90  A    between atoms: _208  and  _209
REMARK   91  A    between atoms: _214  and  _216
REMARK   92  A    between atoms: _216  and  _217
REMARK   93  A    between atoms: _216  and  _219
REMARK   94  A    between atoms: _219  and  _220
REMARK   95  A    between atoms: _223  and  _225
REMARK   96  A    between atoms: _225  and  _226
REMARK   97  A    between atoms: _225  and  _228
REMARK   98  A    between atoms: _228  and  _229
REMARK   99  A    between atoms: _234  and  _236
REMARK  100  A    between atoms: _236  and  _237
REMARK  101  A    between atoms: _236  and  _239
REMARK  102  A    between atoms: _239  and  _240
REMARK  103  A    between atoms: _243  and  _245
REMARK  104  A    between atoms: _245  and  _246
REMARK  105  A    between atoms: _248  and  _250
REMARK  106  A    between atoms: _250  and  _251
REMARK  107  A    between atoms: _250  and  _253
REMARK  108  A    between atoms: _253  and  _254
REMARK  109  A    between atoms: _254  and  _255
REMARK  110  A    between atoms: _255  and  _256
REMARK  111  A    between atoms: _265  and  _267
REMARK  112  A    between atoms: _267  and  _268
REMARK  113  A    between atoms: _267  and  _270
REMARK  114  A    between atoms: _270  and  _271
REMARK  115  A    between atoms: _271  and  _272
REMARK  116  A    between atoms: _272  and  _273
REMARK  117  A    between atoms: _282  and  _284
REMARK  118  A    between atoms: _284  and  _285
REMARK  119  A    between atoms: _284  and  _287
REMARK  120  A    between atoms: _287  and  _288
REMARK  121  A    between atoms: _291  and  _293
REMARK  122  A    between atoms: _293  and  _294
REMARK  123  A    between atoms: _293  and  _296
REMARK  124  A    between atoms: _296  and  _297
REMARK  125  A    between atoms: _300  and  _302
REMARK  126  A    between atoms: _302  and  _303
REMARK  127  A    between atoms: _302  and  _305
REMARK  128  A    between atoms: _305  and  _306
REMARK  129  A    between atoms: _309  and  _311
REMARK  130  A    between atoms: _311  and  _312
REMARK  131  A    between atoms: _311  and  _314
REMARK  132  A    between atoms: _314  and  _315
REMARK  133  A    between atoms: _318  and  _320
REMARK  134  A    between atoms: _320  and  _321
REMARK  135  A    between atoms: _323  and  _325
REMARK  136  A    between atoms: _325  and  _326
REMARK  137  A    between atoms: _329  and  _331
REMARK  138  A    between atoms: _331  and  _332
REMARK  139  A    between atoms: _331  and  _334
REMARK  140  A    between atoms: _334  and  _335
REMARK  141  A    between atoms: _338  and  _340
REMARK  142  A    between atoms: _340  and  _341
REMARK  143  A    between atoms: _340  and  _343
REMARK  144  A    between atoms: _343  and  _344
REMARK  145  A    between atoms: _347  and  _349
REMARK  146  A    between atoms: _349  and  _350
REMARK  147  A    between atoms: _349  and  _352
REMARK  148  A    between atoms: _352  and  _353
REMARK  149  A    between atoms: _355  and  _357
REMARK  150  A    between atoms: _357  and  _358
REMARK  151  A    between atoms: _357  and  _360
REMARK  152  A    between atoms: _360  and  _361
REMARK  153  A    between atoms: _364  and  _366
REMARK  154  A    between atoms: _366  and  _367
REMARK  155  A    between atoms: _366  and  _369
REMARK  156  A    between atoms: _369  and  _370
REMARK  157  A    between atoms: _373  and  _375
REMARK  158  A    between atoms: _375  and  _376
REMARK  159  A    between atoms: _375  and  _378
REMARK  160  A    between atoms: _381  and  _383
REMARK  161  A    between atoms: _383  and  _384
REMARK  162  A    between atoms: _386  and  _388
REMARK  163  A    between atoms: _388  and  _389
REMARK  164  A    between atoms: _391  and  _393
REMARK  165  A    between atoms: _393  and  _394
REMARK  166  A    between atoms: _393  and  _396
REMARK  167  A    between atoms: _396  and  _397
REMARK  168  A    between atoms: _400  and  _402
REMARK  169  A    between atoms: _402  and  _403
REMARK  170  A    between atoms: _405  and  _407
REMARK  171  A    between atoms: _407  and  _408
REMARK  172  A    between atoms: _410  and  _412
REMARK  173  A    between atoms: _412  and  _413
REMARK  174  A    between atoms: _412  and  _415
REMARK  175  A    between atoms: _415  and  _416
REMARK  176  A    between atoms: _422  and  _424
REMARK  177  A    between atoms: _424  and  _425
REMARK  178  A    between atoms: _424  and  _427
REMARK  179  A    between atoms: _427  and  _428
REMARK  180  A    between atoms: _431  and  _433
REMARK  181  A    between atoms: _433  and  _434
REMARK  182  A    between atoms: _433  and  _436
REMARK  183  A    between atoms: _436  and  _437
REMARK  184  A    between atoms: _437  and  _438
REMARK  185  A    between atoms: _440  and  _442
REMARK  186  A    between atoms: _442  and  _443
REMARK  187  A    between atoms: _442  and  _445
REMARK  188  A    between atoms: _445  and  _446
REMARK  189  A    between atoms: _450  and  _451
REMARK  190  A    between atoms: _456  and  _458
REMARK  191  A    between atoms: _458  and  _459
REMARK  192  A    between atoms: _458  and  _461
REMARK  193  A    between atoms: _461  and  _462
REMARK  194  A    between atoms: _465  and  _467
REMARK  195  A    between atoms: _467  and  _468
REMARK  196  A    between atoms: _467  and  _470
REMARK  197  A    between atoms: _470  and  _471
REMARK  198  A    between atoms: _476  and  _478
REMARK  199  A    between atoms: _478  and  _479
REMARK  200  A    between atoms: _478  and  _481
REMARK  201  A    between atoms: _481  and  _482
REMARK  202  A    between atoms: _485  and  _487
REMARK  203  A    between atoms: _487  and  _488
REMARK  204  A    between atoms: _487  and  _490
REMARK  205  A    between atoms: _490  and  _491
REMARK  206  A    between atoms: _497  and  _499
REMARK  207  A    between atoms: _499  and  _500
REMARK  208  A    between atoms: _502  and  _504
REMARK  209  A    between atoms: _504  and  _505
REMARK  210  A    between atoms: _504  and  _507
REMARK  211  A    between atoms: _507  and  _508
REMARK  212  A    between atoms: _508  and  _509
REMARK  213  A    between atoms: _509  and  _510
REMARK  214  A    between atoms: _519  and  _521
REMARK  215  A    between atoms: _521  and  _522
REMARK  216  A    between atoms: _521  and  _524
REMARK  217  A    between atoms: _524  and  _525
REMARK                            x       y       z     vdW  Elec       q    Type
REMARK                         _______ _______ _______ _____ _____    ______ ____
ROOT
ATOM      1  CA  MET A   1      -3.223  16.822  27.802  0.00  0.00    +0.134 C 
ENDROOT
BRANCH   1   2
ATOM      2  N   MET A   1      -3.493  18.087  28.498  0.00  0.00    -0.239 NA
ATOM      3  H   MET A   1      -3.296  18.115  29.519  0.00  0.00    +0.142 HD
ENDBRANCH   1   2
BRANCH   1   4
ATOM      4  C   MET A   1      -4.317  15.872  28.236  0.00  0.00    +0.224 C 
ATOM      5  O   MET A   1      -4.742  15.872  29.395  0.00  0.00    -0.287 OA
ENDBRANCH   1   4
BRANCH   1   6
ATOM      6  CB  MET A   1      -1.961  16.129  28.226  0.00  0.00    +0.037 C 
BRANCH   6   7
ATOM      7  CG  MET A   1      -0.674  16.928  28.231  0.00  0.00    +0.059 C 
BRANCH   7   8
ATOM      8  SD  MET A   1      -0.039  17.105  26.545  0.00  0.00    -0.139 S 
ATOM      9  CE  MET A   1       1.371  18.027  27.031  0.00  0.00    +0.069 C 
ENDBRANCH   7   8
ENDBRANCH   6   7
ENDBRANCH   1   6
TORSDOF 5
REMARK  Name = ../refined-set-2016/1siv/1siv_pocket.pdb
REMARK  217 active torsions:
REMARK  status: ('A' for Active; 'I' for Inactive)
REMARK    1  A    between atoms: _1  and  _3
REMARK    2  A    between atoms: _3  and  _4
REMARK    3  A    between atoms: _3  and  _6
REMARK    4  A    between atoms: _6  and  _7
REMARK    5  A    between atoms: _7  and  _8
REMARK    6  A    between atoms: _8  and  _9
REMARK    7  A    between atoms: _18  and  _20
REMARK    8  A    between atoms: _20  and  _21
REMARK    9  A    between atoms: _20  and  _23
REMARK   10  A    between atoms: _23  and  _24
REMARK   11  A    between atoms: _27  and  _29
REMARK   12  A    between atoms: _29  and  _30
REMARK   13  A    between atoms: _29  and  _32
REMARK   14  A    between atoms: _32  and  _33
REMARK   15  A    between atoms: _36  and  _38
REMARK   16  A    between atoms: _38  and  _39
REMARK   17  A    between atoms: _38  and  _41
REMARK   18  A    between atoms: _41  and  _42
REMARK   19  A    between atoms: _45  and  _47
REMARK   20  A    between atoms: _47  and  _48
REMARK   21  A    between atoms: _47  and  _50
REMARK   22  A    between atoms: _50  and  _51
REMARK   23  A    between atoms: _54  and  _56
REMARK   24  A    between atoms: _56  and  _57
REMARK   25  A    between atoms: _59  and  _61
REMARK   26  A    between atoms: _61  and  _62
REMARK   27  A    between atoms: _65  and  _67
REMARK   28  A    between atoms: _67  and  _68
REMARK   29  A    between atoms: _67  and  _70
REMARK   30  A    between atoms: _70  and  _71
REMARK   31  A    between atoms: _74  and  _76
REMARK   32  A    between atoms: _76  and  _77
REMARK   33  A    between atoms: _76  and  _79
REMARK   34  A    between atoms: _79  and  _80
REMARK   35  A    between atoms: _83  and  _85
REMARK   36  A    between atoms: _85  and  _86
REMARK   37  A    between atoms: _85  and  _88
REMARK   38  A    between atoms: _88  and  _89
REMARK   39  A    between atoms: _91  and  _93
REMARK   40  A    between atoms: _93  and  _94
REMARK   41  A    between atoms: _93  and  _96
REMARK   42  A    between atoms: _96  and  _97
REMARK   43  A    between atoms: _100  and  _102
REMARK   44  A    between atoms: _102  and  _103
REMARK   45  A    between atoms: _102  and  _105
REMARK   46  A    between atoms: _105  and  _106
REMARK   47  A    between atoms: _106  and  _107
REMARK   48  A    between atoms: _107  and  _108
REMARK   49  A    between atoms: _108  and  _109
REMARK   50  A    between atoms: _113  and  _115
REMARK   51  A    between atoms: _115  and  _116
REMARK   52  A    between atoms: _115  and  _118
REMARK   53  A    between atoms: _118  and  _119
REMARK   54  A    between atoms: _122  and  _124
REMARK   55  A    between atoms: _124  and  _125
REMARK   56  A    between atoms: _124  and  _127
REMARK   57  A    between atoms: _130  and  _132
REMARK   58  A    between atoms: _132  and  _133
REMARK   59  A    between atoms: _135  and  _137
REMARK   60  A    between atoms: _137  and  _138
REMARK   61  A    between atoms: _140  and  _142
REMARK   62  A    between atoms: _142  and  _143
REMARK   63  A    between atoms: _142  and  _145
REMARK   64  A    between atoms: _145  and  _146
REMARK   65  A    between atoms: _149  and  _151
REMARK   66  A    between atoms: _151  and  _152
REMARK   67  A    between atoms: _154  and  _156
REMARK   68  A    between atoms: _156  and  _157
REMARK   69  A    between atoms: _159  and  _161
REMARK   70  A    between atoms: _161  and  _162
REMARK   71  A    between atoms: _161  and  _164
REMARK   72  A    between atoms: _164  and  _165
REMARK   73  A    between atoms: _171  and  _173
REMARK   74  A    between atoms: _173  and  _174
REMARK   75  A    between atoms: _173  and  _176
REMARK   76  A    between atoms: _176  and  _177
REMARK   77  A    between atoms: _180  and  _182
REMARK   78  A    between atoms: _182  and  _183
REMARK   79  A    between atoms: _182  and  _185
REMARK   80  A    between atoms: _185  and  _186
REMARK   81  A    between atoms: _189  and  _191
REMARK   82  A    between atoms: _191  and  _192
REMARK   83  A    between atoms: _191  and  _194
REMARK   84  A    between atoms: _194  and  _195
REMARK   85  A    between atoms: _195  and  _196
REMARK   86  A    between atoms: _198  and  _200
REMARK   87  A    between atoms: _200  and  _201
REMARK   88  A    between atoms: _200  and  _203
REMARK   89  A    between atoms: _203  and  _204
REMARK   90  A    between atoms: _208  and  _209
REMARK   91  A    between atoms: _214  and  _216
REMARK   92  A    between atoms: _216  and  _217
REMARK   93  A    between atoms: _216  and  _219
REMARK   94  A    between atoms: _219  and  _220
REMARK   95  A    between atoms: _223  and  _225
REMARK   96  A    between atoms: _225  and  _226
REMARK   97  A    between atoms: _225  and  _228
REMARK   98  A    between atoms: _228  and  _229
REMARK   99  A    between atoms: _234  and  _236
REMARK  100  A    between atoms: _236  and  _237
REMARK  101  A    between atoms: _236  and  _239
REMARK  102  A    between atoms: _239  and  _240
REMARK  103  A    between atoms: _243  and  _245
REMARK  104  A    between atoms: _245  and  _246
REMARK  105  A    between atoms: _248  and  _250
REMARK  106  A    between atoms: _250  and  _251
REMARK  107  A    between atoms: _250  and  _253
REMARK  108  A    between atoms: _253  and  _254
REMARK  109  A    between atoms: _254  and  _255
REMARK  110  A    between atoms: _255  and  _256
REMARK  111  A    between atoms: _265  and  _267
REMARK  112  A    between atoms: _267  and  _268
REMARK  113  A    between atoms: _267  and  _270
REMARK  114  A    between atoms: _270  and  _271
REMARK  115  A    between atoms: _271  and  _272
REMARK  116  A    between atoms: _272  and  _273
REMARK  117  A    between atoms: _282  and  _284
REMARK  118  A    between atoms: _284  and  _285
REMARK  119  A    between atoms: _284  and  _287
REMARK  120  A    between atoms: _287  and  _288
REMARK  121  A    between atoms: _291  and  _293
REMARK  122  A    between atoms: _293  and  _294
REMARK  123  A    between atoms: _293  and  _296
REMARK  124  A    between atoms: _296  and  _297
REMARK  125  A    between atoms: _300  and  _302
REMARK  126  A    between atoms: _302  and  _303
REMARK  127  A    between atoms: _302  and  _305
REMARK  128  A    between atoms: _305  and  _306
REMARK  129  A    between atoms: _309  and  _311
REMARK  130  A    between atoms: _311  and  _312
REMARK  131  A    between atoms: _311  and  _314
REMARK  132  A    between atoms: _314  and  _315
REMARK  133  A    between atoms: _318  and  _320
REMARK  134  A    between atoms: _320  and  _321
REMARK  135  A    between atoms: _323  and  _325
REMARK  136  A    between atoms: _325  and  _326
REMARK  137  A    between atoms: _329  and  _331
REMARK  138  A    between atoms: _331  and  _332
REMARK  139  A    between atoms: _331  and  _334
REMARK  140  A    between atoms: _334  and  _335
REMARK  141  A    between atoms: _338  and  _340
REMARK  142  A    between atoms: _340  and  _341
REMARK  143  A    between atoms: _340  and  _343
REMARK  144  A    between atoms: _343  and  _344
REMARK  145  A    between atoms: _347  and  _349
REMARK  146  A    between atoms: _349  and  _350
REMARK  147  A    between atoms: _349  and  _352
REMARK  148  A    between atoms: _352  and  _353
REMARK  149  A    between atoms: _355  and  _357
REMARK  150  A    between atoms: _357  and  _358
REMARK  151  A    between atoms: _357  and  _360
REMARK  152  A    between atoms: _360  and  _361
REMARK  153  A    between atoms: _364  and  _366
REMARK  154  A    between atoms: _366  and  _367
REMARK  155  A    between atoms: _366  and  _369
REMARK  156  A    between atoms: _369  and  _370
REMARK  157  A    between atoms: _373  and  _375
REMARK  158  A    between atoms: _375  and  _376
REMARK  159  A    between atoms: _375  and  _378
REMARK  160  A    between atoms: _381  and  _383
REMARK  161  A    between atoms: _383  and  _384
REMARK  162  A    between atoms: _386  and  _388
REMARK  163  A    between atoms: _388  and  _389
REMARK  164  A    between atoms: _391  and  _393
REMARK  165  A    between atoms: _393  and  _394
REMARK  166  A    between atoms: _393  and  _396
REMARK  167  A    between atoms: _396  and  _397
REMARK  168  A    between atoms: _400  and  _402
REMARK  169  A    between atoms: _402  and  _403
REMARK  170  A    between atoms: _405  and  _407
REMARK  171  A    between atoms: _407  and  _408
REMARK  172  A    between atoms: _410  and  _412
REMARK  173  A    between atoms: _412  and  _413
REMARK  174  A    between atoms: _412  and  _415
REMARK  175  A    between atoms: _415  and  _416
REMARK  176  A    between atoms: _422  and  _424
REMARK  177  A    between atoms: _424  and  _425
REMARK  178  A    between atoms: _424  and  _427
REMARK  179  A    between atoms: _427  and  _428
REMARK  180  A    between atoms: _431  and  _433
REMARK  181  A    between atoms: _433  and  _434
REMARK  182  A    between atoms: _433  and  _436
REMARK  183  A    between atoms: _436  and  _437
REMARK  184  A    between atoms: _437  and  _438
REMARK  185  A    between atoms: _440  and  _442
REMARK  186  A    between atoms: _442  and  _443
REMARK  187  A    between atoms: _442  and  _445
REMARK  188  A    between atoms: _445  and  _446
REMARK  189  A    between atoms: _450  and  _451
REMARK  190  A    between atoms: _456  and  _458
REMARK  191  A    between atoms: _458  and  _459
REMARK  192  A    between atoms: _458  and  _461
REMARK  193  A    between atoms: _461  and  _462
REMARK  194  A    between atoms: _465  and  _467
REMARK  195  A    between atoms: _467  and  _468
REMARK  196  A    between atoms: _467  and  _470
REMARK  197  A    between atoms: _470  and  _471
REMARK  198  A    between atoms: _476  and  _478
REMARK  199  A    between atoms: _478  and  _479
REMARK  200  A    between atoms: _478  and  _481
REMARK  201  A    between atoms: _481  and  _482
REMARK  202  A    between atoms: _485  and  _487
REMARK  203  A    between atoms: _487  and  _488
REMARK  204  A    between atoms: _487  and  _490
REMARK  205  A    between atoms: _490  and  _491
REMARK  206  A    between atoms: _497  and  _499
REMARK  207  A    between atoms: _499  and  _500
REMARK  208  A    between atoms: _502  and  _504
REMARK  209  A    between atoms: _504  and  _505
REMARK  210  A    between atoms: _504  and  _507
REMARK  211  A    between atoms: _507  and  _508
REMARK  212  A    between atoms: _508  and  _509
REMARK  213  A    between atoms: _509  and  _510
REMARK  214  A    between atoms: _519  and  _521
REMARK  215  A    between atoms: _521  and  _522
REMARK  216  A    between atoms: _521  and  _524
REMARK  217  A    between atoms: _524  and  _525
REMARK                            x       y       z     vdW  Elec       q    Type
REMARK                         _______ _______ _______ _____ _____    ______ ____
ROOT
ATOM      1  C   ILE A   5      -3.561  17.960  36.666  0.00  0.00    +0.241 C 
ATOM      2  N   PHE A   6      -3.440  18.996  37.497  0.00  0.00    -0.297 N 
ATOM      3  H   PHE A   6      -3.444  18.822  38.522  0.00  0.00    +0.150 HD
ATOM      4  O   ILE A   5      -3.579  18.078  35.445  0.00  0.00    -0.273 OA
ENDROOT
BRANCH   1   5
ATOM      5  CA  ILE A   5      -3.639  16.580  37.271  0.00  0.00    +0.149 C 
BRANCH   5   8
ATOM      6  C   ASN A   4      -5.640  15.230  37.611  0.00  0.00    +0.241 C 
ATOM      7  O   ASN A   4      -5.787  15.557  38.774  0.00  0.00    -0.273 OA
ATOM      8  N   ILE A   5      -4.659  15.663  36.834  0.00  0.00    -0.297 N 
ATOM      9  H   ILE A   5      -4.623  15.321  35.852  0.00  0.00    +0.150 HD
BRANCH   6  10
ATOM     10  CA  ASN A   4      -6.560  14.248  36.965  0.00  0.00    +0.158 C 
BRANCH  10  12
ATOM     11  C   ILE A   3      -5.507  12.208  37.716  0.00  0.00    +0.241 C 
ATOM     12  N   ASN A   4      -6.477  13.103  37.822  0.00  0.00    -0.297 N 
ATOM     13  H   ASN A   4      -7.204  12.970  38.553  0.00  0.00    +0.150 HD
ATOM     14  O   ILE A   3      -4.580  12.334  36.915  0.00  0.00    -0.273 OA
BRANCH  11  15
ATOM     15  CA  ILE A   3      -5.527  11.030  38.696  0.00  0.00    +0.149 C 
BRANCH  15  18
ATOM     16  C   PRO A   2      -5.752   8.664  38.042  0.00  0.00    +0.241 C 
ATOM     17  O   PRO A   2      -6.633   8.464  38.868  0.00  0.00    -0.273 OA
ATOM     18  N   ILE A   3      -5.163   9.858  37.915  0.00  0.00    -0.297 N 
ATOM     19  H   ILE A   3      -4.399   9.954  37.216  0.00  0.00    +0.150 HD
BRANCH  16  22
ATOM     20  C   THR A   1      -5.147   8.530  34.962  0.00  0.00    +0.244 C 
ATOM     21  N   PRO A   2      -4.576   7.895  36.000  0.00  0.00    -0.272 N 
ATOM     22  CA  PRO A   2      -5.314   7.491  37.199  0.00  0.00    +0.152 C 
ATOM     23  CB  PRO A   2      -4.396   6.579  37.967  0.00  0.00    +0.031 C 
ATOM     24  CG  PRO A   2      -3.026   7.134  37.592  0.00  0.00    +0.024 C 
ATOM     25  CD  PRO A   2      -3.188   7.462  36.089  0.00  0.00    +0.094 C 
ATOM     26  O   THR A   1      -6.386   8.673  34.941  0.00  0.00    -0.273 OA
BRANCH  20  27
ATOM     27  CA  THR A   1      -4.287   9.061  33.789  0.00  0.00    +0.172 C 
BRANCH  27  28
ATOM     28  N   THR A   1      -5.026   8.766  32.587  0.00  0.00    -0.236 NA
ATOM     29  H   THR A   1      -5.789   9.405  32.284  0.00  0.00    +0.142 HD
ENDBRANCH  27  28
BRANCH  27  30
ATOM     30  CB  THR A   1      -4.075  10.575  33.843  0.00  0.00    +0.135 C 
ATOM     31  CG2 THR A   1      -5.376  11.382  33.618  0.00  0.00    +0.034 C 
BRANCH  30  32
ATOM     32  OG1 THR A   1      -3.453  10.822  35.107  0.00  0.00    -0.383 OA
ATOM     33  HG1 THR A   1      -4.050  10.512  35.833  0.00  0.00    +0.210 HD
ENDBRANCH  30  32
ENDBRANCH  27  30
ENDBRANCH  20  27
ENDBRANCH  16  22
ENDBRANCH  15  18
BRANCH  15  34
ATOM     34  CB  ILE A   3      -4.507  11.422  39.828  0.00  0.00    +0.027 C 
ATOM     35  CG2 ILE A   3      -5.365  12.044  40.953  0.00  0.00    +0.002 C 
BRANCH  34  36
ATOM     36  CG1 ILE A   3      -3.683  10.274  40.394  0.00  0.00    +0.002 C 
ATOM     37  CD1 ILE A   3      -2.422   9.887  39.629  0.00  0.00    +0.000 C 
ENDBRANCH  34  36
ENDBRANCH  15  34
ENDBRANCH  11  15
ENDBRANCH  10  12
BRANCH  10  38
ATOM     38  CB  ASN A   4      -7.954  14.791  36.920  0.00  0.00    +0.114 C 
BRANCH  38  39
ATOM     39  CG  ASN A   4      -8.863  13.900  36.101  0.00  0.00    +0.222 C 
ATOM     40  ND2 ASN A   4     -10.058  13.791  36.619  0.00  0.00    -0.329 N 
ATOM     41 HD21 ASN A   4     -10.300  14.317  37.483  0.00  0.00    +0.145 HD
ATOM     42 HD22 ASN A   4     -10.767  13.178  36.167  0.00  0.00    +0.145 HD
ATOM     43  OD1 ASN A   4      -8.542  13.288  35.074  0.00  0.00    -0.275 OA
ENDBRANCH  38  39
ENDBRANCH  10  38
ENDBRANCH   6  10
ENDBRANCH   5   8
BRANCH   5  44
ATOM     44  CB  ILE A   5      -2.285  15.848  37.068  0.00  0.00    +0.027 C 
ATOM     45  CG2 ILE A   5      -1.123  16.821  37.275  0.00  0.00    +0.002 C 
BRANCH  44  46
ATOM     46  CG1 ILE A   5      -2.255  14.626  37.974  0.00  0.00    +0.002 C 
ATOM     47  CD1 ILE A   5      -1.118  13.602  37.809  0.00  0.00    +0.000 C 
ENDBRANCH  44  46
ENDBRANCH   5  44
ENDBRANCH   1   5
BRANCH   2  48
ATOM     48  CA  PHE A   6      -3.303  20.357  37.018  0.00  0.00    +0.153 C 
BRANCH  48  49
ATOM     49  C   PHE A   6      -1.893  20.678  37.457  0.00  0.00    +0.241 C 
ATOM     50  O   PHE A   6      -1.667  20.843  38.658  0.00  0.00    -0.273 OA
ATOM     51  N   GLY A   7      -0.974  20.694  36.492  0.00  0.00    -0.295 N 
ATOM     52  H   GLY A   7      -1.278  20.509  35.515  0.00  0.00    +0.150 HD
BRANCH  51  53
ATOM     53  CA  GLY A   7       0.416  20.954  36.738  0.00  0.00    +0.176 C 
BRANCH  53  54
ATOM     54  C   GLY A   7       0.752  22.452  36.747  0.00  0.00    +0.243 C 
ATOM     55  N   ARG A   8       2.057  22.709  36.848  0.00  0.00    -0.297 N 
ATOM     56  H   ARG A   8       2.713  21.902  36.841  0.00  0.00    +0.150 HD
ATOM     57  O   GLY A   7      -0.075  23.369  36.621  0.00  0.00    -0.273 OA
BRANCH  55  58
ATOM     58  CA  ARG A   8       2.619  24.038  36.967  0.00  0.00    +0.149 C 
BRANCH  58  59
ATOM     59  C   ARG A   8       2.203  25.000  35.886  0.00  0.00    +0.241 C 
ATOM     60  O   ARG A   8       2.022  26.168  36.186  0.00  0.00    -0.273 OA
ATOM     61  N   ASN A   9       1.941  24.557  34.659  0.00  0.00    -0.298 N 
ATOM     62  H   ASN A   9       2.021  23.543  34.440  0.00  0.00    +0.150 HD
BRANCH  61  63
ATOM     63  CA  ASN A   9       1.545  25.492  33.635  0.00  0.00    +0.146 C 
BRANCH  63  64
ATOM     64  C   ASN A   9       0.246  26.170  34.046  0.00  0.00    +0.227 C 
ATOM     65  O   ASN A   9       0.070  27.366  33.805  0.00  0.00    -0.286 OA
ENDBRANCH  63  64
BRANCH  63  66
ATOM     66  CB  ASN A   9       1.371  24.795  32.257  0.00  0.00    +0.112 C 
BRANCH  66  67
ATOM     67  CG  ASN A   9       0.227  23.812  32.173  0.00  0.00    +0.222 C 
ATOM     68  OD1 ASN A   9       0.009  23.066  33.112  0.00  0.00    -0.275 OA
ATOM     69  ND2 ASN A   9      -0.550  23.724  31.127  0.00  0.00    -0.329 N 
ATOM     70 HD21 ASN A   9      -1.327  23.032  31.113  0.00  0.00    +0.145 HD
ATOM     71 HD22 ASN A   9      -0.392  24.345  30.308  0.00  0.00    +0.145 HD
ENDBRANCH  66  67
ENDBRANCH  63  66
ENDBRANCH  61  63
ENDBRANCH  58  59
BRANCH  58  72
ATOM     72  CB  ARG A   8       4.125  23.967  36.990  0.00  0.00    +0.033 C 
BRANCH  72  73
ATOM     73  CG  ARG A   8       4.639  23.438  38.336  0.00  0.00    +0.045 C 
BRANCH  73  74
ATOM     74  CD  ARG A   8       6.133  23.553  38.395  0.00  0.00    +0.174 C 
BRANCH  74  75
ATOM     75  NE  ARG A   8       6.790  22.888  37.265  0.00  0.00    -0.265 N 
ATOM     76  HE  ARG A   8       6.647  21.863  37.161  0.00  0.00    +0.259 HD
ATOM     77  CZ  ARG A   8       7.559  23.501  36.359  0.00  0.00    +0.342 C 
ATOM     78  NH2 ARG A   8       7.724  24.810  36.351  0.00  0.00    -0.292 N 
ATOM     79 HH21 ARG A   8       7.248  25.398  37.065  0.00  0.00    +0.255 HD
ATOM     80 HH22 ARG A   8       8.330  25.253  35.631  0.00  0.00    +0.255 HD
ATOM     81  NH1 ARG A   8       8.116  22.793  35.403  0.00  0.00    -0.292 N 
ATOM     82 HH11 ARG A   8       7.957  21.766  35.356  0.00  0.00    +0.255 HD
ATOM     83 HH12 ARG A   8       8.716  23.259  34.693  0.00  0.00    +0.255 HD
ENDBRANCH  74  75
ENDBRANCH  73  74
ENDBRANCH  72  73
ENDBRANCH  58  72
ENDBRANCH  55  58
ENDBRANCH  53  54
ENDBRANCH  51  53
ENDBRANCH  48  49
BRANCH  48  84
ATOM     84  CB  PHE A   6      -4.221  21.305  37.702  0.00  0.00    +0.055 C 
BRANCH  84  85
ATOM     85  CG  PHE A   6      -5.446  21.653  36.894  0.00  0.00    -0.020 A 
ATOM     86  CD2 PHE A   6      -6.063  22.868  37.164  0.00  0.00    -0.004 A 
ATOM     87  CE2 PHE A   6      -7.221  23.205  36.501  0.00  0.00    -0.000 A 
ATOM     88  CZ  PHE A   6      -7.735  22.320  35.580  0.00  0.00    -0.000 A 
ATOM     89  CE1 PHE A   6      -7.101  21.116  35.316  0.00  0.00    -0.000 A 
ATOM     90  CD1 PHE A   6      -5.947  20.769  35.970  0.00  0.00    -0.004 A 
ENDBRANCH  84  85
ENDBRANCH  48  84
ENDBRANCH   2  48
TORSDOF 33
REMARK  Name = ../refined-set-2016/1siv/1siv_pocket.pdb
REMARK  217 active torsions:
REMARK  status: ('A' for Active; 'I' for Inactive)
REMARK    1  A    between atoms: _1  and  _3
REMARK    2  A    between atoms: _3  and  _4
REMARK    3  A    between atoms: _3  and  _6
REMARK    4  A    between atoms: _6  and  _7
REMARK    5  A    between atoms: _7  and  _8
REMARK    6  A    between atoms: _8  and  _9
REMARK    7  A    between atoms: _18  and  _20
REMARK    8  A    between atoms: _20  and  _21
REMARK    9  A    between atoms: _20  and  _23
REMARK   10  A    between atoms: _23  and  _24
REMARK   11  A    between atoms: _27  and  _29
REMARK   12  A    between atoms: _29  and  _30
REMARK   13  A    between atoms: _29  and  _32
REMARK   14  A    between atoms: _32  and  _33
REMARK   15  A    between atoms: _36  and  _38
REMARK   16  A    between atoms: _38  and  _39
REMARK   17  A    between atoms: _38  and  _41
REMARK   18  A    between atoms: _41  and  _42
REMARK   19  A    between atoms: _45  and  _47
REMARK   20  A    between atoms: _47  and  _48
REMARK   21  A    between atoms: _47  and  _50
REMARK   22  A    between atoms: _50  and  _51
REMARK   23  A    between atoms: _54  and  _56
REMARK   24  A    between atoms: _56  and  _57
REMARK   25  A    between atoms: _59  and  _61
REMARK   26  A    between atoms: _61  and  _62
REMARK   27  A    between atoms: _65  and  _67
REMARK   28  A    between atoms: _67  and  _68
REMARK   29  A    between atoms: _67  and  _70
REMARK   30  A    between atoms: _70  and  _71
REMARK   31  A    between atoms: _74  and  _76
REMARK   32  A    between atoms: _76  and  _77
REMARK   33  A    between atoms: _76  and  _79
REMARK   34  A    between atoms: _79  and  _80
REMARK   35  A    between atoms: _83  and  _85
REMARK   36  A    between atoms: _85  and  _86
REMARK   37  A    between atoms: _85  and  _88
REMARK   38  A    between atoms: _88  and  _89
REMARK   39  A    between atoms: _91  and  _93
REMARK   40  A    between atoms: _93  and  _94
REMARK   41  A    between atoms: _93  and  _96
REMARK   42  A    between atoms: _96  and  _97
REMARK   43  A    between atoms: _100  and  _102
REMARK   44  A    between atoms: _102  and  _103
REMARK   45  A    between atoms: _102  and  _105
REMARK   46  A    between atoms: _105  and  _106
REMARK   47  A    between atoms: _106  and  _107
REMARK   48  A    between atoms: _107  and  _108
REMARK   49  A    between atoms: _108  and  _109
REMARK   50  A    between atoms: _113  and  _115
REMARK   51  A    between atoms: _115  and  _116
REMARK   52  A    between atoms: _115  and  _118
REMARK   53  A    between atoms: _118  and  _119
REMARK   54  A    between atoms: _122  and  _124
REMARK   55  A    between atoms: _124  and  _125
REMARK   56  A    between atoms: _124  and  _127
REMARK   57  A    between atoms: _130  and  _132
REMARK   58  A    between atoms: _132  and  _133
REMARK   59  A    between atoms: _135  and  _137
REMARK   60  A    between atoms: _137  and  _138
REMARK   61  A    between atoms: _140  and  _142
REMARK   62  A    between atoms: _142  and  _143
REMARK   63  A    between atoms: _142  and  _145
REMARK   64  A    between atoms: _145  and  _146
REMARK   65  A    between atoms: _149  and  _151
REMARK   66  A    between atoms: _151  and  _152
REMARK   67  A    between atoms: _154  and  _156
REMARK   68  A    between atoms: _156  and  _157
REMARK   69  A    between atoms: _159  and  _161
REMARK   70  A    between atoms: _161  and  _162
REMARK   71  A    between atoms: _161  and  _164
REMARK   72  A    between atoms: _164  and  _165
REMARK   73  A    between atoms: _171  and  _173
REMARK   74  A    between atoms: _173  and  _174
REMARK   75  A    between atoms: _173  and  _176
REMARK   76  A    between atoms: _176  and  _177
REMARK   77  A    between atoms: _180  and  _182
REMARK   78  A    between atoms: _182  and  _183
REMARK   79  A    between atoms: _182  and  _185
REMARK   80  A    between atoms: _185  and  _186
REMARK   81  A    between atoms: _189  and  _191
REMARK   82  A    between atoms: _191  and  _192
REMARK   83  A    between atoms: _191  and  _194
REMARK   84  A    between atoms: _194  and  _195
REMARK   85  A    between atoms: _195  and  _196
REMARK   86  A    between atoms: _198  and  _200
REMARK   87  A    between atoms: _200  and  _201
REMARK   88  A    between atoms: _200  and  _203
REMARK   89  A    between atoms: _203  and  _204
REMARK   90  A    between atoms: _208  and  _209
REMARK   91  A    between atoms: _214  and  _216
REMARK   92  A    between atoms: _216  and  _217
REMARK   93  A    between atoms: _216  and  _219
REMARK   94  A    between atoms: _219  and  _220
REMARK   95  A    between atoms: _223  and  _225
REMARK   96  A    between atoms: _225  and  _226
REMARK   97  A    between atoms: _225  and  _228
REMARK   98  A    between atoms: _228  and  _229
REMARK   99  A    between atoms: _234  and  _236
REMARK  100  A    between atoms: _236  and  _237
REMARK  101  A    between atoms: _236  and  _239
REMARK  102  A    between atoms: _239  and  _240
REMARK  103  A    between atoms: _243  and  _245
REMARK  104  A    between atoms: _245  and  _246
REMARK  105  A    between atoms: _248  and  _250
REMARK  106  A    between atoms: _250  and  _251
REMARK  107  A    between atoms: _250  and  _253
REMARK  108  A    between atoms: _253  and  _254
REMARK  109  A    between atoms: _254  and  _255
REMARK  110  A    between atoms: _255  and  _256
REMARK  111  A    between atoms: _265  and  _267
REMARK  112  A    between atoms: _267  and  _268
REMARK  113  A    between atoms: _267  and  _270
REMARK  114  A    between atoms: _270  and  _271
REMARK  115  A    between atoms: _271  and  _272
REMARK  116  A    between atoms: _272  and  _273
REMARK  117  A    between atoms: _282  and  _284
REMARK  118  A    between atoms: _284  and  _285
REMARK  119  A    between atoms: _284  and  _287
REMARK  120  A    between atoms: _287  and  _288
REMARK  121  A    between atoms: _291  and  _293
REMARK  122  A    between atoms: _293  and  _294
REMARK  123  A    between atoms: _293  and  _296
REMARK  124  A    between atoms: _296  and  _297
REMARK  125  A    between atoms: _300  and  _302
REMARK  126  A    between atoms: _302  and  _303
REMARK  127  A    between atoms: _302  and  _305
REMARK  128  A    between atoms: _305  and  _306
REMARK  129  A    between atoms: _309  and  _311
REMARK  130  A    between atoms: _311  and  _312
REMARK  131  A    between atoms: _311  and  _314
REMARK  132  A    between atoms: _314  and  _315
REMARK  133  A    between atoms: _318  and  _320
REMARK  134  A    between atoms: _320  and  _321
REMARK  135  A    between atoms: _323  and  _325
REMARK  136  A    between atoms: _325  and  _326
REMARK  137  A    between atoms: _329  and  _331
REMARK  138  A    between atoms: _331  and  _332
REMARK  139  A    between atoms: _331  and  _334
REMARK  140  A    between atoms: _334  and  _335
REMARK  141  A    between atoms: _338  and  _340
REMARK  142  A    between atoms: _340  and  _341
REMARK  143  A    between atoms: _340  and  _343
REMARK  144  A    between atoms: _343  and  _344
REMARK  145  A    between atoms: _347  and  _349
REMARK  146  A    between atoms: _349  and  _350
REMARK  147  A    between atoms: _349  and  _352
REMARK  148  A    between atoms: _352  and  _353
REMARK  149  A    between atoms: _355  and  _357
REMARK  150  A    between atoms: _357  and  _358
REMARK  151  A    between atoms: _357  and  _360
REMARK  152  A    between atoms: _360  and  _361
REMARK  153  A    between atoms: _364  and  _366
REMARK  154  A    between atoms: _366  and  _367
REMARK  155  A    between atoms: _366  and  _369
REMARK  156  A    between atoms: _369  and  _370
REMARK  157  A    between atoms: _373  and  _375
REMARK  158  A    between atoms: _375  and  _376
REMARK  159  A    between atoms: _375  and  _378
REMARK  160  A    between atoms: _381  and  _383
REMARK  161  A    between atoms: _383  and  _384
REMARK  162  A    between atoms: _386  and  _388
REMARK  163  A    between atoms: _388  and  _389
REMARK  164  A    between atoms: _391  and  _393
REMARK  165  A    between atoms: _393  and  _394
REMARK  166  A    between atoms: _393  and  _396
REMARK  167  A    between atoms: _396  and  _397
REMARK  168  A    between atoms: _400  and  _402
REMARK  169  A    between atoms: _402  and  _403
REMARK  170  A    between atoms: _405  and  _407
REMARK  171  A    between atoms: _407  and  _408
REMARK  172  A    between atoms: _410  and  _412
REMARK  173  A    between atoms: _412  and  _413
REMARK  174  A    between atoms: _412  and  _415
REMARK  175  A    between atoms: _415  and  _416
REMARK  176  A    between atoms: _422  and  _424
REMARK  177  A    between atoms: _424  and  _425
REMARK  178  A    between atoms: _424  and  _427
REMARK  179  A    between atoms: _427  and  _428
REMARK  180  A    between atoms: _431  and  _433
REMARK  181  A    between atoms: _433  and  _434
REMARK  182  A    between atoms: _433  and  _436
REMARK  183  A    between atoms: _436  and  _437
REMARK  184  A    between atoms: _437  and  _438
REMARK  185  A    between atoms: _440  and  _442
REMARK  186  A    between atoms: _442  and  _443
REMARK  187  A    between atoms: _442  and  _445
REMARK  188  A    between atoms: _445  and  _446
REMARK  189  A    between atoms: _450  and  _451
REMARK  190  A    between atoms: _456  and  _458
REMARK  191  A    between atoms: _458  and  _459
REMARK  192  A    between atoms: _458  and  _461
REMARK  193  A    between atoms: _461  and  _462
REMARK  194  A    between atoms: _465  and  _467
REMARK  195  A    between atoms: _467  and  _468
REMARK  196  A    between atoms: _467  and  _470
REMARK  197  A    between atoms: _470  and  _471
REMARK  198  A    between atoms: _476  and  _478
REMARK  199  A    between atoms: _478  and  _479
REMARK  200  A    between atoms: _478  and  _481
REMARK  201  A    between atoms: _481  and  _482
REMARK  202  A    between atoms: _485  and  _487
REMARK  203  A    between atoms: _487  and  _488
REMARK  204  A    between atoms: _487  and  _490
REMARK  205  A    between atoms: _490  and  _491
REMARK  206  A    between atoms: _497  and  _499
REMARK  207  A    between atoms: _499  and  _500
REMARK  208  A    between atoms: _502  and  _504
REMARK  209  A    between atoms: _504  and  _505
REMARK  210  A    between atoms: _504  and  _507
REMARK  211  A    between atoms: _507  and  _508
REMARK  212  A    between atoms: _508  and  _509
REMARK  213  A    between atoms: _509  and  _510
REMARK  214  A    between atoms: _519  and  _521
REMARK  215  A    between atoms: _521  and  _522
REMARK  216  A    between atoms: _521  and  _524
REMARK  217  A    between atoms: _524  and  _525
REMARK                            x       y       z     vdW  Elec       q    Type
REMARK                         _______ _______ _______ _____ _____    ______ ____
ROOT
ATOM      1  O   HOH     1       1.440   1.972  49.090  0.00  0.00    +0.000 OA
ENDROOT
TORSDOF 0
REMARK  Name = ../refined-set-2016/1siv/1siv_pocket.pdb
REMARK  217 active torsions:
REMARK  status: ('A' for Active; 'I' for Inactive)
REMARK    1  A    between atoms: _1  and  _3
REMARK    2  A    between atoms: _3  and  _4
REMARK    3  A    between atoms: _3  and  _6
REMARK    4  A    between atoms: _6  and  _7
REMARK    5  A    between atoms: _7  and  _8
REMARK    6  A    between atoms: _8  and  _9
REMARK    7  A    between atoms: _18  and  _20
REMARK    8  A    between atoms: _20  and  _21
REMARK    9  A    between atoms: _20  and  _23
REMARK   10  A    between atoms: _23  and  _24
REMARK   11  A    between atoms: _27  and  _29
REMARK   12  A    between atoms: _29  and  _30
REMARK   13  A    between atoms: _29  and  _32
REMARK   14  A    between atoms: _32  and  _33
REMARK   15  A    between atoms: _36  and  _38
REMARK   16  A    between atoms: _38  and  _39
REMARK   17  A    between atoms: _38  and  _41
REMARK   18  A    between atoms: _41  and  _42
REMARK   19  A    between atoms: _45  and  _47
REMARK   20  A    between atoms: _47  and  _48
REMARK   21  A    between atoms: _47  and  _50
REMARK   22  A    between atoms: _50  and  _51
REMARK   23  A    between atoms: _54  and  _56
REMARK   24  A    between atoms: _56  and  _57
REMARK   25  A    between atoms: _59  and  _61
REMARK   26  A    between atoms: _61  and  _62
REMARK   27  A    between atoms: _65  and  _67
REMARK   28  A    between atoms: _67  and  _68
REMARK   29  A    between atoms: _67  and  _70
REMARK   30  A    between atoms: _70  and  _71
REMARK   31  A    between atoms: _74  and  _76
REMARK   32  A    between atoms: _76  and  _77
REMARK   33  A    between atoms: _76  and  _79
REMARK   34  A    between atoms: _79  and  _80
REMARK   35  A    between atoms: _83  and  _85
REMARK   36  A    between atoms: _85  and  _86
REMARK   37  A    between atoms: _85  and  _88
REMARK   38  A    between atoms: _88  and  _89
REMARK   39  A    between atoms: _91  and  _93
REMARK   40  A    between atoms: _93  and  _94
REMARK   41  A    between atoms: _93  and  _96
REMARK   42  A    between atoms: _96  and  _97
REMARK   43  A    between atoms: _100  and  _102
REMARK   44  A    between atoms: _102  and  _103
REMARK   45  A    between atoms: _102  and  _105
REMARK   46  A    between atoms: _105  and  _106
REMARK   47  A    between atoms: _106  and  _107
REMARK   48  A    between atoms: _107  and  _108
REMARK   49  A    between atoms: _108  and  _109
REMARK   50  A    between atoms: _113  and  _115
REMARK   51  A    between atoms: _115  and  _116
REMARK   52  A    between atoms: _115  and  _118
REMARK   53  A    between atoms: _118  and  _119
REMARK   54  A    between atoms: _122  and  _124
REMARK   55  A    between atoms: _124  and  _125
REMARK   56  A    between atoms: _124  and  _127
REMARK   57  A    between atoms: _130  and  _132
REMARK   58  A    between atoms: _132  and  _133
REMARK   59  A    between atoms: _135  and  _137
REMARK   60  A    between atoms: _137  and  _138
REMARK   61  A    between atoms: _140  and  _142
REMARK   62  A    between atoms: _142  and  _143
REMARK   63  A    between atoms: _142  and  _145
REMARK   64  A    between atoms: _145  and  _146
REMARK   65  A    between atoms: _149  and  _151
REMARK   66  A    between atoms: _151  and  _152
REMARK   67  A    between atoms: _154  and  _156
REMARK   68  A    between atoms: _156  and  _157
REMARK   69  A    between atoms: _159  and  _161
REMARK   70  A    between atoms: _161  and  _162
REMARK   71  A    between atoms: _161  and  _164
REMARK   72  A    between atoms: _164  and  _165
REMARK   73  A    between atoms: _171  and  _173
REMARK   74  A    between atoms: _173  and  _174
REMARK   75  A    between atoms: _173  and  _176
REMARK   76  A    between atoms: _176  and  _177
REMARK   77  A    between atoms: _180  and  _182
REMARK   78  A    between atoms: _182  and  _183
REMARK   79  A    between atoms: _182  and  _185
REMARK   80  A    between atoms: _185  and  _186
REMARK   81  A    between atoms: _189  and  _191
REMARK   82  A    between atoms: _191  and  _192
REMARK   83  A    between atoms: _191  and  _194
REMARK   84  A    between atoms: _194  and  _195
REMARK   85  A    between atoms: _195  and  _196
REMARK   86  A    between atoms: _198  and  _200
REMARK   87  A    between atoms: _200  and  _201
REMARK   88  A    between atoms: _200  and  _203
REMARK   89  A    between atoms: _203  and  _204
REMARK   90  A    between atoms: _208  and  _209
REMARK   91  A    between atoms: _214  and  _216
REMARK   92  A    between atoms: _216  and  _217
REMARK   93  A    between atoms: _216  and  _219
REMARK   94  A    between atoms: _219  and  _220
REMARK   95  A    between atoms: _223  and  _225
REMARK   96  A    between atoms: _225  and  _226
REMARK   97  A    between atoms: _225  and  _228
REMARK   98  A    between atoms: _228  and  _229
REMARK   99  A    between atoms: _234  and  _236
REMARK  100  A    between atoms: _236  and  _237
REMARK  101  A    between atoms: _236  and  _239
REMARK  102  A    between atoms: _239  and  _240
REMARK  103  A    between atoms: _243  and  _245
REMARK  104  A    between atoms: _245  and  _246
REMARK  105  A    between atoms: _248  and  _250
REMARK  106  A    between atoms: _250  and  _251
REMARK  107  A    between atoms: _250  and  _253
REMARK  108  A    between atoms: _253  and  _254
REMARK  109  A    between atoms: _254  and  _255
REMARK  110  A    between atoms: _255  and  _256
REMARK  111  A    between atoms: _265  and  _267
REMARK  112  A    between atoms: _267  and  _268
REMARK  113  A    between atoms: _267  and  _270
REMARK  114  A    between atoms: _270  and  _271
REMARK  115  A    between atoms: _271  and  _272
REMARK  116  A    between atoms: _272  and  _273
REMARK  117  A    between atoms: _282  and  _284
REMARK  118  A    between atoms: _284  and  _285
REMARK  119  A    between atoms: _284  and  _287
REMARK  120  A    between atoms: _287  and  _288
REMARK  121  A    between atoms: _291  and  _293
REMARK  122  A    between atoms: _293  and  _294
REMARK  123  A    between atoms: _293  and  _296
REMARK  124  A    between atoms: _296  and  _297
REMARK  125  A    between atoms: _300  and  _302
REMARK  126  A    between atoms: _302  and  _303
REMARK  127  A    between atoms: _302  and  _305
REMARK  128  A    between atoms: _305  and  _306
REMARK  129  A    between atoms: _309  and  _311
REMARK  130  A    between atoms: _311  and  _312
REMARK  131  A    between atoms: _311  and  _314
REMARK  132  A    between atoms: _314  and  _315
REMARK  133  A    between atoms: _318  and  _320
REMARK  134  A    between atoms: _320  and  _321
REMARK  135  A    between atoms: _323  and  _325
REMARK  136  A    between atoms: _325  and  _326
REMARK  137  A    between atoms: _329  and  _331
REMARK  138  A    between atoms: _331  and  _332
REMARK  139  A    between atoms: _331  and  _334
REMARK  140  A    between atoms: _334  and  _335
REMARK  141  A    between atoms: _338  and  _340
REMARK  142  A    between atoms: _340  and  _341
REMARK  143  A    between atoms: _340  and  _343
REMARK  144  A    between atoms: _343  and  _344
REMARK  145  A    between atoms: _347  and  _349
REMARK  146  A    between atoms: _349  and  _350
REMARK  147  A    between atoms: _349  and  _352
REMARK  148  A    between atoms: _352  and  _353
REMARK  149  A    between atoms: _355  and  _357
REMARK  150  A    between atoms: _357  and  _358
REMARK  151  A    between atoms: _357  and  _360
REMARK  152  A    between atoms: _360  and  _361
REMARK  153  A    between atoms: _364  and  _366
REMARK  154  A    between atoms: _366  and  _367
REMARK  155  A    between atoms: _366  and  _369
REMARK  156  A    between atoms: _369  and  _370
REMARK  157  A    between atoms: _373  and  _375
REMARK  158  A    between atoms: _375  and  _376
REMARK  159  A    between atoms: _375  and  _378
REMARK  160  A    between atoms: _381  and  _383
REMARK  161  A    between atoms: _383  and  _384
REMARK  162  A    between atoms: _386  and  _388
REMARK  163  A    between atoms: _388  and  _389
REMARK  164  A    between atoms: _391  and  _393
REMARK  165  A    between atoms: _393  and  _394
REMARK  166  A    between atoms: _393  and  _396
REMARK  167  A    between atoms: _396  and  _397
REMARK  168  A    between atoms: _400  and  _402
REMARK  169  A    between atoms: _402  and  _403
REMARK  170  A    between atoms: _405  and  _407
REMARK  171  A    between atoms: _407  and  _408
REMARK  172  A    between atoms: _410  and  _412
REMARK  173  A    between atoms: _412  and  _413
REMARK  174  A    between atoms: _412  and  _415
REMARK  175  A    between atoms: _415  and  _416
REMARK  176  A    between atoms: _422  and  _424
REMARK  177  A    between atoms: _424  and  _425
REMARK  178  A    between atoms: _424  and  _427
REMARK  179  A    between atoms: _427  and  _428
REMARK  180  A    between atoms: _431  and  _433
REMARK  181  A    between atoms: _433  and  _434
REMARK  182  A    between atoms: _433  and  _436
REMARK  183  A    between atoms: _436  and  _437
REMARK  184  A    between atoms: _437  and  _438
REMARK  185  A    between atoms: _440  and  _442
REMARK  186  A    between atoms: _442  and  _443
REMARK  187  A    between atoms: _442  and  _445
REMARK  188  A    between atoms: _445  and  _446
REMARK  189  A    between atoms: _450  and  _451
REMARK  190  A    between atoms: _456  and  _458
REMARK  191  A    between atoms: _458  and  _459
REMARK  192  A    between atoms: _458  and  _461
REMARK  193  A    between atoms: _461  and  _462
REMARK  194  A    between atoms: _465  and  _467
REMARK  195  A    between atoms: _467  and  _468
REMARK  196  A    between atoms: _467  and  _470
REMARK  197  A    between atoms: _470  and  _471
REMARK  198  A    between atoms: _476  and  _478
REMARK  199  A    between atoms: _478  and  _479
REMARK  200  A    between atoms: _478  and  _481
REMARK  201  A    between atoms: _481  and  _482
REMARK  202  A    between atoms: _485  and  _487
REMARK  203  A    between atoms: _487  and  _488
REMARK  204  A    between atoms: _487  and  _490
REMARK  205  A    between atoms: _490  and  _491
REMARK  206  A    between atoms: _497  and  _499
REMARK  207  A    between atoms: _499  and  _500
REMARK  208  A    between atoms: _502  and  _504
REMARK  209  A    between atoms: _504  and  _505
REMARK  210  A    between atoms: _504  and  _507
REMARK  211  A    between atoms: _507  and  _508
REMARK  212  A    between atoms: _508  and  _509
REMARK  213  A    between atoms: _509  and  _510
REMARK  214  A    between atoms: _519  and  _521
REMARK  215  A    between atoms: _521  and  _522
REMARK  216  A    between atoms: _521  and  _524
REMARK  217  A    between atoms: _524  and  _525
REMARK                            x       y       z     vdW  Elec       q    Type
REMARK                         _______ _______ _______ _____ _____    ______ ____
ROOT
ATOM      1  O   HOH     1      -1.543  14.461  46.906  0.00  0.00    +0.000 OA
ENDROOT
TORSDOF 0
REMARK  Name = ../refined-set-2016/1siv/1siv_pocket.pdb
REMARK  217 active torsions:
REMARK  status: ('A' for Active; 'I' for Inactive)
REMARK    1  A    between atoms: _1  and  _3
REMARK    2  A    between atoms: _3  and  _4
REMARK    3  A    between atoms: _3  and  _6
REMARK    4  A    between atoms: _6  and  _7
REMARK    5  A    between atoms: _7  and  _8
REMARK    6  A    between atoms: _8  and  _9
REMARK    7  A    between atoms: _18  and  _20
REMARK    8  A    between atoms: _20  and  _21
REMARK    9  A    between atoms: _20  and  _23
REMARK   10  A    between atoms: _23  and  _24
REMARK   11  A    between atoms: _27  and  _29
REMARK   12  A    between atoms: _29  and  _30
REMARK   13  A    between atoms: _29  and  _32
REMARK   14  A    between atoms: _32  and  _33
REMARK   15  A    between atoms: _36  and  _38
REMARK   16  A    between atoms: _38  and  _39
REMARK   17  A    between atoms: _38  and  _41
REMARK   18  A    between atoms: _41  and  _42
REMARK   19  A    between atoms: _45  and  _47
REMARK   20  A    between atoms: _47  and  _48
REMARK   21  A    between atoms: _47  and  _50
REMARK   22  A    between atoms: _50  and  _51
REMARK   23  A    between atoms: _54  and  _56
REMARK   24  A    between atoms: _56  and  _57
REMARK   25  A    between atoms: _59  and  _61
REMARK   26  A    between atoms: _61  and  _62
REMARK   27  A    between atoms: _65  and  _67
REMARK   28  A    between atoms: _67  and  _68
REMARK   29  A    between atoms: _67  and  _70
REMARK   30  A    between atoms: _70  and  _71
REMARK   31  A    between atoms: _74  and  _76
REMARK   32  A    between atoms: _76  and  _77
REMARK   33  A    between atoms: _76  and  _79
REMARK   34  A    between atoms: _79  and  _80
REMARK   35  A    between atoms: _83  and  _85
REMARK   36  A    between atoms: _85  and  _86
REMARK   37  A    between atoms: _85  and  _88
REMARK   38  A    between atoms: _88  and  _89
REMARK   39  A    between atoms: _91  and  _93
REMARK   40  A    between atoms: _93  and  _94
REMARK   41  A    between atoms: _93  and  _96
REMARK   42  A    between atoms: _96  and  _97
REMARK   43  A    between atoms: _100  and  _102
REMARK   44  A    between atoms: _102  and  _103
REMARK   45  A    between atoms: _102  and  _105
REMARK   46  A    between atoms: _105  and  _106
REMARK   47  A    between atoms: _106  and  _107
REMARK   48  A    between atoms: _107  and  _108
REMARK   49  A    between atoms: _108  and  _109
REMARK   50  A    between atoms: _113  and  _115
REMARK   51  A    between atoms: _115  and  _116
REMARK   52  A    between atoms: _115  and  _118
REMARK   53  A    between atoms: _118  and  _119
REMARK   54  A    between atoms: _122  and  _124
REMARK   55  A    between atoms: _124  and  _125
REMARK   56  A    between atoms: _124  and  _127
REMARK   57  A    between atoms: _130  and  _132
REMARK   58  A    between atoms: _132  and  _133
REMARK   59  A    between atoms: _135  and  _137
REMARK   60  A    between atoms: _137  and  _138
REMARK   61  A    between atoms: _140  and  _142
REMARK   62  A    between atoms: _142  and  _143
REMARK   63  A    between atoms: _142  and  _145
REMARK   64  A    between atoms: _145  and  _146
REMARK   65  A    between atoms: _149  and  _151
REMARK   66  A    between atoms: _151  and  _152
REMARK   67  A    between atoms: _154  and  _156
REMARK   68  A    between atoms: _156  and  _157
REMARK   69  A    between atoms: _159  and  _161
REMARK   70  A    between atoms: _161  and  _162
REMARK   71  A    between atoms: _161  and  _164
REMARK   72  A    between atoms: _164  and  _165
REMARK   73  A    between atoms: _171  and  _173
REMARK   74  A    between atoms: _173  and  _174
REMARK   75  A    between atoms: _173  and  _176
REMARK   76  A    between atoms: _176  and  _177
REMARK   77  A    between atoms: _180  and  _182
REMARK   78  A    between atoms: _182  and  _183
REMARK   79  A    between atoms: _182  and  _185
REMARK   80  A    between atoms: _185  and  _186
REMARK   81  A    between atoms: _189  and  _191
REMARK   82  A    between atoms: _191  and  _192
REMARK   83  A    between atoms: _191  and  _194
REMARK   84  A    between atoms: _194  and  _195
REMARK   85  A    between atoms: _195  and  _196
REMARK   86  A    between atoms: _198  and  _200
REMARK   87  A    between atoms: _200  and  _201
REMARK   88  A    between atoms: _200  and  _203
REMARK   89  A    between atoms: _203  and  _204
REMARK   90  A    between atoms: _208  and  _209
REMARK   91  A    between atoms: _214  and  _216
REMARK   92  A    between atoms: _216  and  _217
REMARK   93  A    between atoms: _216  and  _219
REMARK   94  A    between atoms: _219  and  _220
REMARK   95  A    between atoms: _223  and  _225
REMARK   96  A    between atoms: _225  and  _226
REMARK   97  A    between atoms: _225  and  _228
REMARK   98  A    between atoms: _228  and  _229
REMARK   99  A    between atoms: _234  and  _236
REMARK  100  A    between atoms: _236  and  _237
REMARK  101  A    between atoms: _236  and  _239
REMARK  102  A    between atoms: _239  and  _240
REMARK  103  A    between atoms: _243  and  _245
REMARK  104  A    between atoms: _245  and  _246
REMARK  105  A    between atoms: _248  and  _250
REMARK  106  A    between atoms: _250  and  _251
REMARK  107  A    between atoms: _250  and  _253
REMARK  108  A    between atoms: _253  and  _254
REMARK  109  A    between atoms: _254  and  _255
REMARK  110  A    between atoms: _255  and  _256
REMARK  111  A    between atoms: _265  and  _267
REMARK  112  A    between atoms: _267  and  _268
REMARK  113  A    between atoms: _267  and  _270
REMARK  114  A    between atoms: _270  and  _271
REMARK  115  A    between atoms: _271  and  _272
REMARK  116  A    between atoms: _272  and  _273
REMARK  117  A    between atoms: _282  and  _284
REMARK  118  A    between atoms: _284  and  _285
REMARK  119  A    between atoms: _284  and  _287
REMARK  120  A    between atoms: _287  and  _288
REMARK  121  A    between atoms: _291  and  _293
REMARK  122  A    between atoms: _293  and  _294
REMARK  123  A    between atoms: _293  and  _296
REMARK  124  A    between atoms: _296  and  _297
REMARK  125  A    between atoms: _300  and  _302
REMARK  126  A    between atoms: _302  and  _303
REMARK  127  A    between atoms: _302  and  _305
REMARK  128  A    between atoms: _305  and  _306
REMARK  129  A    between atoms: _309  and  _311
REMARK  130  A    between atoms: _311  and  _312
REMARK  131  A    between atoms: _311  and  _314
REMARK  132  A    between atoms: _314  and  _315
REMARK  133  A    between atoms: _318  and  _320
REMARK  134  A    between atoms: _320  and  _321
REMARK  135  A    between atoms: _323  and  _325
REMARK  136  A    between atoms: _325  and  _326
REMARK  137  A    between atoms: _329  and  _331
REMARK  138  A    between atoms: _331  and  _332
REMARK  139  A    between atoms: _331  and  _334
REMARK  140  A    between atoms: _334  and  _335
REMARK  141  A    between atoms: _338  and  _340
REMARK  142  A    between atoms: _340  and  _341
REMARK  143  A    between atoms: _340  and  _343
REMARK  144  A    between atoms: _343  and  _344
REMARK  145  A    between atoms: _347  and  _349
REMARK  146  A    between atoms: _349  and  _350
REMARK  147  A    between atoms: _349  and  _352
REMARK  148  A    between atoms: _352  and  _353
REMARK  149  A    between atoms: _355  and  _357
REMARK  150  A    between atoms: _357  and  _358
REMARK  151  A    between atoms: _357  and  _360
REMARK  152  A    between atoms: _360  and  _361
REMARK  153  A    between atoms: _364  and  _366
REMARK  154  A    between atoms: _366  and  _367
REMARK  155  A    between atoms: _366  and  _369
REMARK  156  A    between atoms: _369  and  _370
REMARK  157  A    between atoms: _373  and  _375
REMARK  158  A    between atoms: _375  and  _376
REMARK  159  A    between atoms: _375  and  _378
REMARK  160  A    between atoms: _381  and  _383
REMARK  161  A    between atoms: _383  and  _384
REMARK  162  A    between atoms: _386  and  _388
REMARK  163  A    between atoms: _388  and  _389
REMARK  164  A    between atoms: _391  and  _393
REMARK  165  A    between atoms: _393  and  _394
REMARK  166  A    between atoms: _393  and  _396
REMARK  167  A    between atoms: _396  and  _397
REMARK  168  A    between atoms: _400  and  _402
REMARK  169  A    between atoms: _402  and  _403
REMARK  170  A    between atoms: _405  and  _407
REMARK  171  A    between atoms: _407  and  _408
REMARK  172  A    between atoms: _410  and  _412
REMARK  173  A    between atoms: _412  and  _413
REMARK  174  A    between atoms: _412  and  _415
REMARK  175  A    between atoms: _415  and  _416
REMARK  176  A    between atoms: _422  and  _424
REMARK  177  A    between atoms: _424  and  _425
REMARK  178  A    between atoms: _424  and  _427
REMARK  179  A    between atoms: _427  and  _428
REMARK  180  A    between atoms: _431  and  _433
REMARK  181  A    between atoms: _433  and  _434
REMARK  182  A    between atoms: _433  and  _436
REMARK  183  A    between atoms: _436  and  _437
REMARK  184  A    between atoms: _437  and  _438
REMARK  185  A    between atoms: _440  and  _442
REMARK  186  A    between atoms: _442  and  _443
REMARK  187  A    between atoms: _442  and  _445
REMARK  188  A    between atoms: _445  and  _446
REMARK  189  A    between atoms: _450  and  _451
REMARK  190  A    between atoms: _456  and  _458
REMARK  191  A    between atoms: _458  and  _459
REMARK  192  A    between atoms: _458  and  _461
REMARK  193  A    between atoms: _461  and  _462
REMARK  194  A    between atoms: _465  and  _467
REMARK  195  A    between atoms: _467  and  _468
REMARK  196  A    between atoms: _467  and  _470
REMARK  197  A    between atoms: _470  and  _471
REMARK  198  A    between atoms: _476  and  _478
REMARK  199  A    between atoms: _478  and  _479
REMARK  200  A    between atoms: _478  and  _481
REMARK  201  A    between atoms: _481  and  _482
REMARK  202  A    between atoms: _485  and  _487
REMARK  203  A    between atoms: _487  and  _488
REMARK  204  A    between atoms: _487  and  _490
REMARK  205  A    between atoms: _490  and  _491
REMARK  206  A    between atoms: _497  and  _499
REMARK  207  A    between atoms: _499  and  _500
REMARK  208  A    between atoms: _502  and  _504
REMARK  209  A    between atoms: _504  and  _505
REMARK  210  A    between atoms: _504  and  _507
REMARK  211  A    between atoms: _507  and  _508
REMARK  212  A    between atoms: _508  and  _509
REMARK  213  A    between atoms: _509  and  _510
REMARK  214  A    between atoms: _519  and  _521
REMARK  215  A    between atoms: _521  and  _522
REMARK  216  A    between atoms: _521  and  _524
REMARK  217  A    between atoms: _524  and  _525
REMARK                            x       y       z     vdW  Elec       q    Type
REMARK                         _______ _______ _______ _____ _____    ______ ____
ROOT
ATOM      1  O   HOH     1      -1.950  11.990  45.434  0.00  0.00    +0.000 OA
ENDROOT
TORSDOF 0
REMARK  Name = ../refined-set-2016/1siv/1siv_pocket.pdb
REMARK  217 active torsions:
REMARK  status: ('A' for Active; 'I' for Inactive)
REMARK    1  A    between atoms: _1  and  _3
REMARK    2  A    between atoms: _3  and  _4
REMARK    3  A    between atoms: _3  and  _6
REMARK    4  A    between atoms: _6  and  _7
REMARK    5  A    between atoms: _7  and  _8
REMARK    6  A    between atoms: _8  and  _9
REMARK    7  A    between atoms: _18  and  _20
REMARK    8  A    between atoms: _20  and  _21
REMARK    9  A    between atoms: _20  and  _23
REMARK   10  A    between atoms: _23  and  _24
REMARK   11  A    between atoms: _27  and  _29
REMARK   12  A    between atoms: _29  and  _30
REMARK   13  A    between atoms: _29  and  _32
REMARK   14  A    between atoms: _32  and  _33
REMARK   15  A    between atoms: _36  and  _38
REMARK   16  A    between atoms: _38  and  _39
REMARK   17  A    between atoms: _38  and  _41
REMARK   18  A    between atoms: _41  and  _42
REMARK   19  A    between atoms: _45  and  _47
REMARK   20  A    between atoms: _47  and  _48
REMARK   21  A    between atoms: _47  and  _50
REMARK   22  A    between atoms: _50  and  _51
REMARK   23  A    between atoms: _54  and  _56
REMARK   24  A    between atoms: _56  and  _57
REMARK   25  A    between atoms: _59  and  _61
REMARK   26  A    between atoms: _61  and  _62
REMARK   27  A    between atoms: _65  and  _67
REMARK   28  A    between atoms: _67  and  _68
REMARK   29  A    between atoms: _67  and  _70
REMARK   30  A    between atoms: _70  and  _71
REMARK   31  A    between atoms: _74  and  _76
REMARK   32  A    between atoms: _76  and  _77
REMARK   33  A    between atoms: _76  and  _79
REMARK   34  A    between atoms: _79  and  _80
REMARK   35  A    between atoms: _83  and  _85
REMARK   36  A    between atoms: _85  and  _86
REMARK   37  A    between atoms: _85  and  _88
REMARK   38  A    between atoms: _88  and  _89
REMARK   39  A    between atoms: _91  and  _93
REMARK   40  A    between atoms: _93  and  _94
REMARK   41  A    between atoms: _93  and  _96
REMARK   42  A    between atoms: _96  and  _97
REMARK   43  A    between atoms: _100  and  _102
REMARK   44  A    between atoms: _102  and  _103
REMARK   45  A    between atoms: _102  and  _105
REMARK   46  A    between atoms: _105  and  _106
REMARK   47  A    between atoms: _106  and  _107
REMARK   48  A    between atoms: _107  and  _108
REMARK   49  A    between atoms: _108  and  _109
REMARK   50  A    between atoms: _113  and  _115
REMARK   51  A    between atoms: _115  and  _116
REMARK   52  A    between atoms: _115  and  _118
REMARK   53  A    between atoms: _118  and  _119
REMARK   54  A    between atoms: _122  and  _124
REMARK   55  A    between atoms: _124  and  _125
REMARK   56  A    between atoms: _124  and  _127
REMARK   57  A    between atoms: _130  and  _132
REMARK   58  A    between atoms: _132  and  _133
REMARK   59  A    between atoms: _135  and  _137
REMARK   60  A    between atoms: _137  and  _138
REMARK   61  A    between atoms: _140  and  _142
REMARK   62  A    between atoms: _142  and  _143
REMARK   63  A    between atoms: _142  and  _145
REMARK   64  A    between atoms: _145  and  _146
REMARK   65  A    between atoms: _149  and  _151
REMARK   66  A    between atoms: _151  and  _152
REMARK   67  A    between atoms: _154  and  _156
REMARK   68  A    between atoms: _156  and  _157
REMARK   69  A    between atoms: _159  and  _161
REMARK   70  A    between atoms: _161  and  _162
REMARK   71  A    between atoms: _161  and  _164
REMARK   72  A    between atoms: _164  and  _165
REMARK   73  A    between atoms: _171  and  _173
REMARK   74  A    between atoms: _173  and  _174
REMARK   75  A    between atoms: _173  and  _176
REMARK   76  A    between atoms: _176  and  _177
REMARK   77  A    between atoms: _180  and  _182
REMARK   78  A    between atoms: _182  and  _183
REMARK   79  A    between atoms: _182  and  _185
REMARK   80  A    between atoms: _185  and  _186
REMARK   81  A    between atoms: _189  and  _191
REMARK   82  A    between atoms: _191  and  _192
REMARK   83  A    between atoms: _191  and  _194
REMARK   84  A    between atoms: _194  and  _195
REMARK   85  A    between atoms: _195  and  _196
REMARK   86  A    between atoms: _198  and  _200
REMARK   87  A    between atoms: _200  and  _201
REMARK   88  A    between atoms: _200  and  _203
REMARK   89  A    between atoms: _203  and  _204
REMARK   90  A    between atoms: _208  and  _209
REMARK   91  A    between atoms: _214  and  _216
REMARK   92  A    between atoms: _216  and  _217
REMARK   93  A    between atoms: _216  and  _219
REMARK   94  A    between atoms: _219  and  _220
REMARK   95  A    between atoms: _223  and  _225
REMARK   96  A    between atoms: _225  and  _226
REMARK   97  A    between atoms: _225  and  _228
REMARK   98  A    between atoms: _228  and  _229
REMARK   99  A    between atoms: _234  and  _236
REMARK  100  A    between atoms: _236  and  _237
REMARK  101  A    between atoms: _236  and  _239
REMARK  102  A    between atoms: _239  and  _240
REMARK  103  A    between atoms: _243  and  _245
REMARK  104  A    between atoms: _245  and  _246
REMARK  105  A    between atoms: _248  and  _250
REMARK  106  A    between atoms: _250  and  _251
REMARK  107  A    between atoms: _250  and  _253
REMARK  108  A    between atoms: _253  and  _254
REMARK  109  A    between atoms: _254  and  _255
REMARK  110  A    between atoms: _255  and  _256
REMARK  111  A    between atoms: _265  and  _267
REMARK  112  A    between atoms: _267  and  _268
REMARK  113  A    between atoms: _267  and  _270
REMARK  114  A    between atoms: _270  and  _271
REMARK  115  A    between atoms: _271  and  _272
REMARK  116  A    between atoms: _272  and  _273
REMARK  117  A    between atoms: _282  and  _284
REMARK  118  A    between atoms: _284  and  _285
REMARK  119  A    between atoms: _284  and  _287
REMARK  120  A    between atoms: _287  and  _288
REMARK  121  A    between atoms: _291  and  _293
REMARK  122  A    between atoms: _293  and  _294
REMARK  123  A    between atoms: _293  and  _296
REMARK  124  A    between atoms: _296  and  _297
REMARK  125  A    between atoms: _300  and  _302
REMARK  126  A    between atoms: _302  and  _303
REMARK  127  A    between atoms: _302  and  _305
REMARK  128  A    between atoms: _305  and  _306
REMARK  129  A    between atoms: _309  and  _311
REMARK  130  A    between atoms: _311  and  _312
REMARK  131  A    between atoms: _311  and  _314
REMARK  132  A    between atoms: _314  and  _315
REMARK  133  A    between atoms: _318  and  _320
REMARK  134  A    between atoms: _320  and  _321
REMARK  135  A    between atoms: _323  and  _325
REMARK  136  A    between atoms: _325  and  _326
REMARK  137  A    between atoms: _329  and  _331
REMARK  138  A    between atoms: _331  and  _332
REMARK  139  A    between atoms: _331  and  _334
REMARK  140  A    between atoms: _334  and  _335
REMARK  141  A    between atoms: _338  and  _340
REMARK  142  A    between atoms: _340  and  _341
REMARK  143  A    between atoms: _340  and  _343
REMARK  144  A    between atoms: _343  and  _344
REMARK  145  A    between atoms: _347  and  _349
REMARK  146  A    between atoms: _349  and  _350
REMARK  147  A    between atoms: _349  and  _352
REMARK  148  A    between atoms: _352  and  _353
REMARK  149  A    between atoms: _355  and  _357
REMARK  150  A    between atoms: _357  and  _358
REMARK  151  A    between atoms: _357  and  _360
REMARK  152  A    between atoms: _360  and  _361
REMARK  153  A    between atoms: _364  and  _366
REMARK  154  A    between atoms: _366  and  _367
REMARK  155  A    between atoms: _366  and  _369
REMARK  156  A    between atoms: _369  and  _370
REMARK  157  A    between atoms: _373  and  _375
REMARK  158  A    between atoms: _375  and  _376
REMARK  159  A    between atoms: _375  and  _378
REMARK  160  A    between atoms: _381  and  _383
REMARK  161  A    between atoms: _383  and  _384
REMARK  162  A    between atoms: _386  and  _388
REMARK  163  A    between atoms: _388  and  _389
REMARK  164  A    between atoms: _391  and  _393
REMARK  165  A    between atoms: _393  and  _394
REMARK  166  A    between atoms: _393  and  _396
REMARK  167  A    between atoms: _396  and  _397
REMARK  168  A    between atoms: _400  and  _402
REMARK  169  A    between atoms: _402  and  _403
REMARK  170  A    between atoms: _405  and  _407
REMARK  171  A    between atoms: _407  and  _408
REMARK  172  A    between atoms: _410  and  _412
REMARK  173  A    between atoms: _412  and  _413
REMARK  174  A    between atoms: _412  and  _415
REMARK  175  A    between atoms: _415  and  _416
REMARK  176  A    between atoms: _422  and  _424
REMARK  177  A    between atoms: _424  and  _425
REMARK  178  A    between atoms: _424  and  _427
REMARK  179  A    between atoms: _427  and  _428
REMARK  180  A    between atoms: _431  and  _433
REMARK  181  A    between atoms: _433  and  _434
REMARK  182  A    between atoms: _433  and  _436
REMARK  183  A    between atoms: _436  and  _437
REMARK  184  A    between atoms: _437  and  _438
REMARK  185  A    between atoms: _440  and  _442
REMARK  186  A    between atoms: _442  and  _443
REMARK  187  A    between atoms: _442  and  _445
REMARK  188  A    between atoms: _445  and  _446
REMARK  189  A    between atoms: _450  and  _451
REMARK  190  A    between atoms: _456  and  _458
REMARK  191  A    between atoms: _458  and  _459
REMARK  192  A    between atoms: _458  and  _461
REMARK  193  A    between atoms: _461  and  _462
REMARK  194  A    between atoms: _465  and  _467
REMARK  195  A    between atoms: _467  and  _468
REMARK  196  A    between atoms: _467  and  _470
REMARK  197  A    between atoms: _470  and  _471
REMARK  198  A    between atoms: _476  and  _478
REMARK  199  A    between atoms: _478  and  _479
REMARK  200  A    between atoms: _478  and  _481
REMARK  201  A    between atoms: _481  and  _482
REMARK  202  A    between atoms: _485  and  _487
REMARK  203  A    between atoms: _487  and  _488
REMARK  204  A    between atoms: _487  and  _490
REMARK  205  A    between atoms: _490  and  _491
REMARK  206  A    between atoms: _497  and  _499
REMARK  207  A    between atoms: _499  and  _500
REMARK  208  A    between atoms: _502  and  _504
REMARK  209  A    between atoms: _504  and  _505
REMARK  210  A    between atoms: _504  and  _507
REMARK  211  A    between atoms: _507  and  _508
REMARK  212  A    between atoms: _508  and  _509
REMARK  213  A    between atoms: _509  and  _510
REMARK  214  A    between atoms: _519  and  _521
REMARK  215  A    between atoms: _521  and  _522
REMARK  216  A    between atoms: _521  and  _524
REMARK  217  A    between atoms: _524  and  _525
REMARK                            x       y       z     vdW  Elec       q    Type
REMARK                         _______ _______ _______ _____ _____    ______ ____
ROOT
ATOM      1  O   HOH     1       0.592  11.463  53.040  0.00  0.00    +0.000 OA
ENDROOT
TORSDOF 0
REMARK  Name = ../refined-set-2016/1siv/1siv_pocket.pdb
REMARK  217 active torsions:
REMARK  status: ('A' for Active; 'I' for Inactive)
REMARK    1  A    between atoms: _1  and  _3
REMARK    2  A    between atoms: _3  and  _4
REMARK    3  A    between atoms: _3  and  _6
REMARK    4  A    between atoms: _6  and  _7
REMARK    5  A    between atoms: _7  and  _8
REMARK    6  A    between atoms: _8  and  _9
REMARK    7  A    between atoms: _18  and  _20
REMARK    8  A    between atoms: _20  and  _21
REMARK    9  A    between atoms: _20  and  _23
REMARK   10  A    between atoms: _23  and  _24
REMARK   11  A    between atoms: _27  and  _29
REMARK   12  A    between atoms: _29  and  _30
REMARK   13  A    between atoms: _29  and  _32
REMARK   14  A    between atoms: _32  and  _33
REMARK   15  A    between atoms: _36  and  _38
REMARK   16  A    between atoms: _38  and  _39
REMARK   17  A    between atoms: _38  and  _41
REMARK   18  A    between atoms: _41  and  _42
REMARK   19  A    between atoms: _45  and  _47
REMARK   20  A    between atoms: _47  and  _48
REMARK   21  A    between atoms: _47  and  _50
REMARK   22  A    between atoms: _50  and  _51
REMARK   23  A    between atoms: _54  and  _56
REMARK   24  A    between atoms: _56  and  _57
REMARK   25  A    between atoms: _59  and  _61
REMARK   26  A    between atoms: _61  and  _62
REMARK   27  A    between atoms: _65  and  _67
REMARK   28  A    between atoms: _67  and  _68
REMARK   29  A    between atoms: _67  and  _70
REMARK   30  A    between atoms: _70  and  _71
REMARK   31  A    between atoms: _74  and  _76
REMARK   32  A    between atoms: _76  and  _77
REMARK   33  A    between atoms: _76  and  _79
REMARK   34  A    between atoms: _79  and  _80
REMARK   35  A    between atoms: _83  and  _85
REMARK   36  A    between atoms: _85  and  _86
REMARK   37  A    between atoms: _85  and  _88
REMARK   38  A    between atoms: _88  and  _89
REMARK   39  A    between atoms: _91  and  _93
REMARK   40  A    between atoms: _93  and  _94
REMARK   41  A    between atoms: _93  and  _96
REMARK   42  A    between atoms: _96  and  _97
REMARK   43  A    between atoms: _100  and  _102
REMARK   44  A    between atoms: _102  and  _103
REMARK   45  A    between atoms: _102  and  _105
REMARK   46  A    between atoms: _105  and  _106
REMARK   47  A    between atoms: _106  and  _107
REMARK   48  A    between atoms: _107  and  _108
REMARK   49  A    between atoms: _108  and  _109
REMARK   50  A    between atoms: _113  and  _115
REMARK   51  A    between atoms: _115  and  _116
REMARK   52  A    between atoms: _115  and  _118
REMARK   53  A    between atoms: _118  and  _119
REMARK   54  A    between atoms: _122  and  _124
REMARK   55  A    between atoms: _124  and  _125
REMARK   56  A    between atoms: _124  and  _127
REMARK   57  A    between atoms: _130  and  _132
REMARK   58  A    between atoms: _132  and  _133
REMARK   59  A    between atoms: _135  and  _137
REMARK   60  A    between atoms: _137  and  _138
REMARK   61  A    between atoms: _140  and  _142
REMARK   62  A    between atoms: _142  and  _143
REMARK   63  A    between atoms: _142  and  _145
REMARK   64  A    between atoms: _145  and  _146
REMARK   65  A    between atoms: _149  and  _151
REMARK   66  A    between atoms: _151  and  _152
REMARK   67  A    between atoms: _154  and  _156
REMARK   68  A    between atoms: _156  and  _157
REMARK   69  A    between atoms: _159  and  _161
REMARK   70  A    between atoms: _161  and  _162
REMARK   71  A    between atoms: _161  and  _164
REMARK   72  A    between atoms: _164  and  _165
REMARK   73  A    between atoms: _171  and  _173
REMARK   74  A    between atoms: _173  and  _174
REMARK   75  A    between atoms: _173  and  _176
REMARK   76  A    between atoms: _176  and  _177
REMARK   77  A    between atoms: _180  and  _182
REMARK   78  A    between atoms: _182  and  _183
REMARK   79  A    between atoms: _182  and  _185
REMARK   80  A    between atoms: _185  and  _186
REMARK   81  A    between atoms: _189  and  _191
REMARK   82  A    between atoms: _191  and  _192
REMARK   83  A    between atoms: _191  and  _194
REMARK   84  A    between atoms: _194  and  _195
REMARK   85  A    between atoms: _195  and  _196
REMARK   86  A    between atoms: _198  and  _200
REMARK   87  A    between atoms: _200  and  _201
REMARK   88  A    between atoms: _200  and  _203
REMARK   89  A    between atoms: _203  and  _204
REMARK   90  A    between atoms: _208  and  _209
REMARK   91  A    between atoms: _214  and  _216
REMARK   92  A    between atoms: _216  and  _217
REMARK   93  A    between atoms: _216  and  _219
REMARK   94  A    between atoms: _219  and  _220
REMARK   95  A    between atoms: _223  and  _225
REMARK   96  A    between atoms: _225  and  _226
REMARK   97  A    between atoms: _225  and  _228
REMARK   98  A    between atoms: _228  and  _229
REMARK   99  A    between atoms: _234  and  _236
REMARK  100  A    between atoms: _236  and  _237
REMARK  101  A    between atoms: _236  and  _239
REMARK  102  A    between atoms: _239  and  _240
REMARK  103  A    between atoms: _243  and  _245
REMARK  104  A    between atoms: _245  and  _246
REMARK  105  A    between atoms: _248  and  _250
REMARK  106  A    between atoms: _250  and  _251
REMARK  107  A    between atoms: _250  and  _253
REMARK  108  A    between atoms: _253  and  _254
REMARK  109  A    between atoms: _254  and  _255
REMARK  110  A    between atoms: _255  and  _256
REMARK  111  A    between atoms: _265  and  _267
REMARK  112  A    between atoms: _267  and  _268
REMARK  113  A    between atoms: _267  and  _270
REMARK  114  A    between atoms: _270  and  _271
REMARK  115  A    between atoms: _271  and  _272
REMARK  116  A    between atoms: _272  and  _273
REMARK  117  A    between atoms: _282  and  _284
REMARK  118  A    between atoms: _284  and  _285
REMARK  119  A    between atoms: _284  and  _287
REMARK  120  A    between atoms: _287  and  _288
REMARK  121  A    between atoms: _291  and  _293
REMARK  122  A    between atoms: _293  and  _294
REMARK  123  A    between atoms: _293  and  _296
REMARK  124  A    between atoms: _296  and  _297
REMARK  125  A    between atoms: _300  and  _302
REMARK  126  A    between atoms: _302  and  _303
REMARK  127  A    between atoms: _302  and  _305
REMARK  128  A    between atoms: _305  and  _306
REMARK  129  A    between atoms: _309  and  _311
REMARK  130  A    between atoms: _311  and  _312
REMARK  131  A    between atoms: _311  and  _314
REMARK  132  A    between atoms: _314  and  _315
REMARK  133  A    between atoms: _318  and  _320
REMARK  134  A    between atoms: _320  and  _321
REMARK  135  A    between atoms: _323  and  _325
REMARK  136  A    between atoms: _325  and  _326
REMARK  137  A    between atoms: _329  and  _331
REMARK  138  A    between atoms: _331  and  _332
REMARK  139  A    between atoms: _331  and  _334
REMARK  140  A    between atoms: _334  and  _335
REMARK  141  A    between atoms: _338  and  _340
REMARK  142  A    between atoms: _340  and  _341
REMARK  143  A    between atoms: _340  and  _343
REMARK  144  A    between atoms: _343  and  _344
REMARK  145  A    between atoms: _347  and  _349
REMARK  146  A    between atoms: _349  and  _350
REMARK  147  A    between atoms: _349  and  _352
REMARK  148  A    between atoms: _352  and  _353
REMARK  149  A    between atoms: _355  and  _357
REMARK  150  A    between atoms: _357  and  _358
REMARK  151  A    between atoms: _357  and  _360
REMARK  152  A    between atoms: _360  and  _361
REMARK  153  A    between atoms: _364  and  _366
REMARK  154  A    between atoms: _366  and  _367
REMARK  155  A    between atoms: _366  and  _369
REMARK  156  A    between atoms: _369  and  _370
REMARK  157  A    between atoms: _373  and  _375
REMARK  158  A    between atoms: _375  and  _376
REMARK  159  A    between atoms: _375  and  _378
REMARK  160  A    between atoms: _381  and  _383
REMARK  161  A    between atoms: _383  and  _384
REMARK  162  A    between atoms: _386  and  _388
REMARK  163  A    between atoms: _388  and  _389
REMARK  164  A    between atoms: _391  and  _393
REMARK  165  A    between atoms: _393  and  _394
REMARK  166  A    between atoms: _393  and  _396
REMARK  167  A    between atoms: _396  and  _397
REMARK  168  A    between atoms: _400  and  _402
REMARK  169  A    between atoms: _402  and  _403
REMARK  170  A    between atoms: _405  and  _407
REMARK  171  A    between atoms: _407  and  _408
REMARK  172  A    between atoms: _410  and  _412
REMARK  173  A    between atoms: _412  and  _413
REMARK  174  A    between atoms: _412  and  _415
REMARK  175  A    between atoms: _415  and  _416
REMARK  176  A    between atoms: _422  and  _424
REMARK  177  A    between atoms: _424  and  _425
REMARK  178  A    between atoms: _424  and  _427
REMARK  179  A    between atoms: _427  and  _428
REMARK  180  A    between atoms: _431  and  _433
REMARK  181  A    between atoms: _433  and  _434
REMARK  182  A    between atoms: _433  and  _436
REMARK  183  A    between atoms: _436  and  _437
REMARK  184  A    between atoms: _437  and  _438
REMARK  185  A    between atoms: _440  and  _442
REMARK  186  A    between atoms: _442  and  _443
REMARK  187  A    between atoms: _442  and  _445
REMARK  188  A    between atoms: _445  and  _446
REMARK  189  A    between atoms: _450  and  _451
REMARK  190  A    between atoms: _456  and  _458
REMARK  191  A    between atoms: _458  and  _459
REMARK  192  A    between atoms: _458  and  _461
REMARK  193  A    between atoms: _461  and  _462
REMARK  194  A    between atoms: _465  and  _467
REMARK  195  A    between atoms: _467  and  _468
REMARK  196  A    between atoms: _467  and  _470
REMARK  197  A    between atoms: _470  and  _471
REMARK  198  A    between atoms: _476  and  _478
REMARK  199  A    between atoms: _478  and  _479
REMARK  200  A    between atoms: _478  and  _481
REMARK  201  A    between atoms: _481  and  _482
REMARK  202  A    between atoms: _485  and  _487
REMARK  203  A    between atoms: _487  and  _488
REMARK  204  A    between atoms: _487  and  _490
REMARK  205  A    between atoms: _490  and  _491
REMARK  206  A    between atoms: _497  and  _499
REMARK  207  A    between atoms: _499  and  _500
REMARK  208  A    between atoms: _502  and  _504
REMARK  209  A    between atoms: _504  and  _505
REMARK  210  A    between atoms: _504  and  _507
REMARK  211  A    between atoms: _507  and  _508
REMARK  212  A    between atoms: _508  and  _509
REMARK  213  A    between atoms: _509  and  _510
REMARK  214  A    between atoms: _519  and  _521
REMARK  215  A    between atoms: _521  and  _522
REMARK  216  A    between atoms: _521  and  _524
REMARK  217  A    between atoms: _524  and  _525
REMARK                            x       y       z     vdW  Elec       q    Type
REMARK                         _______ _______ _______ _____ _____    ______ ____
ROOT
ATOM      1  O   HOH     1       2.945   9.918  38.157  0.00  0.00    +0.000 OA
ENDROOT
TORSDOF 0
REMARK  Name = ../refined-set-2016/1siv/1siv_pocket.pdb
REMARK  217 active torsions:
REMARK  status: ('A' for Active; 'I' for Inactive)
REMARK    1  A    between atoms: _1  and  _3
REMARK    2  A    between atoms: _3  and  _4
REMARK    3  A    between atoms: _3  and  _6
REMARK    4  A    between atoms: _6  and  _7
REMARK    5  A    between atoms: _7  and  _8
REMARK    6  A    between atoms: _8  and  _9
REMARK    7  A    between atoms: _18  and  _20
REMARK    8  A    between atoms: _20  and  _21
REMARK    9  A    between atoms: _20  and  _23
REMARK   10  A    between atoms: _23  and  _24
REMARK   11  A    between atoms: _27  and  _29
REMARK   12  A    between atoms: _29  and  _30
REMARK   13  A    between atoms: _29  and  _32
REMARK   14  A    between atoms: _32  and  _33
REMARK   15  A    between atoms: _36  and  _38
REMARK   16  A    between atoms: _38  and  _39
REMARK   17  A    between atoms: _38  and  _41
REMARK   18  A    between atoms: _41  and  _42
REMARK   19  A    between atoms: _45  and  _47
REMARK   20  A    between atoms: _47  and  _48
REMARK   21  A    between atoms: _47  and  _50
REMARK   22  A    between atoms: _50  and  _51
REMARK   23  A    between atoms: _54  and  _56
REMARK   24  A    between atoms: _56  and  _57
REMARK   25  A    between atoms: _59  and  _61
REMARK   26  A    between atoms: _61  and  _62
REMARK   27  A    between atoms: _65  and  _67
REMARK   28  A    between atoms: _67  and  _68
REMARK   29  A    between atoms: _67  and  _70
REMARK   30  A    between atoms: _70  and  _71
REMARK   31  A    between atoms: _74  and  _76
REMARK   32  A    between atoms: _76  and  _77
REMARK   33  A    between atoms: _76  and  _79
REMARK   34  A    between atoms: _79  and  _80
REMARK   35  A    between atoms: _83  and  _85
REMARK   36  A    between atoms: _85  and  _86
REMARK   37  A    between atoms: _85  and  _88
REMARK   38  A    between atoms: _88  and  _89
REMARK   39  A    between atoms: _91  and  _93
REMARK   40  A    between atoms: _93  and  _94
REMARK   41  A    between atoms: _93  and  _96
REMARK   42  A    between atoms: _96  and  _97
REMARK   43  A    between atoms: _100  and  _102
REMARK   44  A    between atoms: _102  and  _103
REMARK   45  A    between atoms: _102  and  _105
REMARK   46  A    between atoms: _105  and  _106
REMARK   47  A    between atoms: _106  and  _107
REMARK   48  A    between atoms: _107  and  _108
REMARK   49  A    between atoms: _108  and  _109
REMARK   50  A    between atoms: _113  and  _115
REMARK   51  A    between atoms: _115  and  _116
REMARK   52  A    between atoms: _115  and  _118
REMARK   53  A    between atoms: _118  and  _119
REMARK   54  A    between atoms: _122  and  _124
REMARK   55  A    between atoms: _124  and  _125
REMARK   56  A    between atoms: _124  and  _127
REMARK   57  A    between atoms: _130  and  _132
REMARK   58  A    between atoms: _132  and  _133
REMARK   59  A    between atoms: _135  and  _137
REMARK   60  A    between atoms: _137  and  _138
REMARK   61  A    between atoms: _140  and  _142
REMARK   62  A    between atoms: _142  and  _143
REMARK   63  A    between atoms: _142  and  _145
REMARK   64  A    between atoms: _145  and  _146
REMARK   65  A    between atoms: _149  and  _151
REMARK   66  A    between atoms: _151  and  _152
REMARK   67  A    between atoms: _154  and  _156
REMARK   68  A    between atoms: _156  and  _157
REMARK   69  A    between atoms: _159  and  _161
REMARK   70  A    between atoms: _161  and  _162
REMARK   71  A    between atoms: _161  and  _164
REMARK   72  A    between atoms: _164  and  _165
REMARK   73  A    between atoms: _171  and  _173
REMARK   74  A    between atoms: _173  and  _174
REMARK   75  A    between atoms: _173  and  _176
REMARK   76  A    between atoms: _176  and  _177
REMARK   77  A    between atoms: _180  and  _182
REMARK   78  A    between atoms: _182  and  _183
REMARK   79  A    between atoms: _182  and  _185
REMARK   80  A    between atoms: _185  and  _186
REMARK   81  A    between atoms: _189  and  _191
REMARK   82  A    between atoms: _191  and  _192
REMARK   83  A    between atoms: _191  and  _194
REMARK   84  A    between atoms: _194  and  _195
REMARK   85  A    between atoms: _195  and  _196
REMARK   86  A    between atoms: _198  and  _200
REMARK   87  A    between atoms: _200  and  _201
REMARK   88  A    between atoms: _200  and  _203
REMARK   89  A    between atoms: _203  and  _204
REMARK   90  A    between atoms: _208  and  _209
REMARK   91  A    between atoms: _214  and  _216
REMARK   92  A    between atoms: _216  and  _217
REMARK   93  A    between atoms: _216  and  _219
REMARK   94  A    between atoms: _219  and  _220
REMARK   95  A    between atoms: _223  and  _225
REMARK   96  A    between atoms: _225  and  _226
REMARK   97  A    between atoms: _225  and  _228
REMARK   98  A    between atoms: _228  and  _229
REMARK   99  A    between atoms: _234  and  _236
REMARK  100  A    between atoms: _236  and  _237
REMARK  101  A    between atoms: _236  and  _239
REMARK  102  A    between atoms: _239  and  _240
REMARK  103  A    between atoms: _243  and  _245
REMARK  104  A    between atoms: _245  and  _246
REMARK  105  A    between atoms: _248  and  _250
REMARK  106  A    between atoms: _250  and  _251
REMARK  107  A    between atoms: _250  and  _253
REMARK  108  A    between atoms: _253  and  _254
REMARK  109  A    between atoms: _254  and  _255
REMARK  110  A    between atoms: _255  and  _256
REMARK  111  A    between atoms: _265  and  _267
REMARK  112  A    between atoms: _267  and  _268
REMARK  113  A    between atoms: _267  and  _270
REMARK  114  A    between atoms: _270  and  _271
REMARK  115  A    between atoms: _271  and  _272
REMARK  116  A    between atoms: _272  and  _273
REMARK  117  A    between atoms: _282  and  _284
REMARK  118  A    between atoms: _284  and  _285
REMARK  119  A    between atoms: _284  and  _287
REMARK  120  A    between atoms: _287  and  _288
REMARK  121  A    between atoms: _291  and  _293
REMARK  122  A    between atoms: _293  and  _294
REMARK  123  A    between atoms: _293  and  _296
REMARK  124  A    between atoms: _296  and  _297
REMARK  125  A    between atoms: _300  and  _302
REMARK  126  A    between atoms: _302  and  _303
REMARK  127  A    between atoms: _302  and  _305
REMARK  128  A    between atoms: _305  and  _306
REMARK  129  A    between atoms: _309  and  _311
REMARK  130  A    between atoms: _311  and  _312
REMARK  131  A    between atoms: _311  and  _314
REMARK  132  A    between atoms: _314  and  _315
REMARK  133  A    between atoms: _318  and  _320
REMARK  134  A    between atoms: _320  and  _321
REMARK  135  A    between atoms: _323  and  _325
REMARK  136  A    between atoms: _325  and  _326
REMARK  137  A    between atoms: _329  and  _331
REMARK  138  A    between atoms: _331  and  _332
REMARK  139  A    between atoms: _331  and  _334
REMARK  140  A    between atoms: _334  and  _335
REMARK  141  A    between atoms: _338  and  _340
REMARK  142  A    between atoms: _340  and  _341
REMARK  143  A    between atoms: _340  and  _343
REMARK  144  A    between atoms: _343  and  _344
REMARK  145  A    between atoms: _347  and  _349
REMARK  146  A    between atoms: _349  and  _350
REMARK  147  A    between atoms: _349  and  _352
REMARK  148  A    between atoms: _352  and  _353
REMARK  149  A    between atoms: _355  and  _357
REMARK  150  A    between atoms: _357  and  _358
REMARK  151  A    between atoms: _357  and  _360
REMARK  152  A    between atoms: _360  and  _361
REMARK  153  A    between atoms: _364  and  _366
REMARK  154  A    between atoms: _366  and  _367
REMARK  155  A    between atoms: _366  and  _369
REMARK  156  A    between atoms: _369  and  _370
REMARK  157  A    between atoms: _373  and  _375
REMARK  158  A    between atoms: _375  and  _376
REMARK  159  A    between atoms: _375  and  _378
REMARK  160  A    between atoms: _381  and  _383
REMARK  161  A    between atoms: _383  and  _384
REMARK  162  A    between atoms: _386  and  _388
REMARK  163  A    between atoms: _388  and  _389
REMARK  164  A    between atoms: _391  and  _393
REMARK  165  A    between atoms: _393  and  _394
REMARK  166  A    between atoms: _393  and  _396
REMARK  167  A    between atoms: _396  and  _397
REMARK  168  A    between atoms: _400  and  _402
REMARK  169  A    between atoms: _402  and  _403
REMARK  170  A    between atoms: _405  and  _407
REMARK  171  A    between atoms: _407  and  _408
REMARK  172  A    between atoms: _410  and  _412
REMARK  173  A    between atoms: _412  and  _413
REMARK  174  A    between atoms: _412  and  _415
REMARK  175  A    between atoms: _415  and  _416
REMARK  176  A    between atoms: _422  and  _424
REMARK  177  A    between atoms: _424  and  _425
REMARK  178  A    between atoms: _424  and  _427
REMARK  179  A    between atoms: _427  and  _428
REMARK  180  A    between atoms: _431  and  _433
REMARK  181  A    between atoms: _433  and  _434
REMARK  182  A    between atoms: _433  and  _436
REMARK  183  A    between atoms: _436  and  _437
REMARK  184  A    between atoms: _437  and  _438
REMARK  185  A    between atoms: _440  and  _442
REMARK  186  A    between atoms: _442  and  _443
REMARK  187  A    between atoms: _442  and  _445
REMARK  188  A    between atoms: _445  and  _446
REMARK  189  A    between atoms: _450  and  _451
REMARK  190  A    between atoms: _456  and  _458
REMARK  191  A    between atoms: _458  and  _459
REMARK  192  A    between atoms: _458  and  _461
REMARK  193  A    between atoms: _461  and  _462
REMARK  194  A    between atoms: _465  and  _467
REMARK  195  A    between atoms: _467  and  _468
REMARK  196  A    between atoms: _467  and  _470
REMARK  197  A    between atoms: _470  and  _471
REMARK  198  A    between atoms: _476  and  _478
REMARK  199  A    between atoms: _478  and  _479
REMARK  200  A    between atoms: _478  and  _481
REMARK  201  A    between atoms: _481  and  _482
REMARK  202  A    between atoms: _485  and  _487
REMARK  203  A    between atoms: _487  and  _488
REMARK  204  A    between atoms: _487  and  _490
REMARK  205  A    between atoms: _490  and  _491
REMARK  206  A    between atoms: _497  and  _499
REMARK  207  A    between atoms: _499  and  _500
REMARK  208  A    between atoms: _502  and  _504
REMARK  209  A    between atoms: _504  and  _505
REMARK  210  A    between atoms: _504  and  _507
REMARK  211  A    between atoms: _507  and  _508
REMARK  212  A    between atoms: _508  and  _509
REMARK  213  A    between atoms: _509  and  _510
REMARK  214  A    between atoms: _519  and  _521
REMARK  215  A    between atoms: _521  and  _522
REMARK  216  A    between atoms: _521  and  _524
REMARK  217  A    between atoms: _524  and  _525
REMARK                            x       y       z     vdW  Elec       q    Type
REMARK                         _______ _______ _______ _____ _____    ______ ____
ROOT
ATOM      1  O   HOH     1       7.102  20.108  38.481  0.00  0.00    +0.000 OA
ENDROOT
TORSDOF 0
REMARK  Name = ../refined-set-2016/1siv/1siv_pocket.pdb
REMARK  217 active torsions:
REMARK  status: ('A' for Active; 'I' for Inactive)
REMARK    1  A    between atoms: _1  and  _3
REMARK    2  A    between atoms: _3  and  _4
REMARK    3  A    between atoms: _3  and  _6
REMARK    4  A    between atoms: _6  and  _7
REMARK    5  A    between atoms: _7  and  _8
REMARK    6  A    between atoms: _8  and  _9
REMARK    7  A    between atoms: _18  and  _20
REMARK    8  A    between atoms: _20  and  _21
REMARK    9  A    between atoms: _20  and  _23
REMARK   10  A    between atoms: _23  and  _24
REMARK   11  A    between atoms: _27  and  _29
REMARK   12  A    between atoms: _29  and  _30
REMARK   13  A    between atoms: _29  and  _32
REMARK   14  A    between atoms: _32  and  _33
REMARK   15  A    between atoms: _36  and  _38
REMARK   16  A    between atoms: _38  and  _39
REMARK   17  A    between atoms: _38  and  _41
REMARK   18  A    between atoms: _41  and  _42
REMARK   19  A    between atoms: _45  and  _47
REMARK   20  A    between atoms: _47  and  _48
REMARK   21  A    between atoms: _47  and  _50
REMARK   22  A    between atoms: _50  and  _51
REMARK   23  A    between atoms: _54  and  _56
REMARK   24  A    between atoms: _56  and  _57
REMARK   25  A    between atoms: _59  and  _61
REMARK   26  A    between atoms: _61  and  _62
REMARK   27  A    between atoms: _65  and  _67
REMARK   28  A    between atoms: _67  and  _68
REMARK   29  A    between atoms: _67  and  _70
REMARK   30  A    between atoms: _70  and  _71
REMARK   31  A    between atoms: _74  and  _76
REMARK   32  A    between atoms: _76  and  _77
REMARK   33  A    between atoms: _76  and  _79
REMARK   34  A    between atoms: _79  and  _80
REMARK   35  A    between atoms: _83  and  _85
REMARK   36  A    between atoms: _85  and  _86
REMARK   37  A    between atoms: _85  and  _88
REMARK   38  A    between atoms: _88  and  _89
REMARK   39  A    between atoms: _91  and  _93
REMARK   40  A    between atoms: _93  and  _94
REMARK   41  A    between atoms: _93  and  _96
REMARK   42  A    between atoms: _96  and  _97
REMARK   43  A    between atoms: _100  and  _102
REMARK   44  A    between atoms: _102  and  _103
REMARK   45  A    between atoms: _102  and  _105
REMARK   46  A    between atoms: _105  and  _106
REMARK   47  A    between atoms: _106  and  _107
REMARK   48  A    between atoms: _107  and  _108
REMARK   49  A    between atoms: _108  and  _109
REMARK   50  A    between atoms: _113  and  _115
REMARK   51  A    between atoms: _115  and  _116
REMARK   52  A    between atoms: _115  and  _118
REMARK   53  A    between atoms: _118  and  _119
REMARK   54  A    between atoms: _122  and  _124
REMARK   55  A    between atoms: _124  and  _125
REMARK   56  A    between atoms: _124  and  _127
REMARK   57  A    between atoms: _130  and  _132
REMARK   58  A    between atoms: _132  and  _133
REMARK   59  A    between atoms: _135  and  _137
REMARK   60  A    between atoms: _137  and  _138
REMARK   61  A    between atoms: _140  and  _142
REMARK   62  A    between atoms: _142  and  _143
REMARK   63  A    between atoms: _142  and  _145
REMARK   64  A    between atoms: _145  and  _146
REMARK   65  A    between atoms: _149  and  _151
REMARK   66  A    between atoms: _151  and  _152
REMARK   67  A    between atoms: _154  and  _156
REMARK   68  A    between atoms: _156  and  _157
REMARK   69  A    between atoms: _159  and  _161
REMARK   70  A    between atoms: _161  and  _162
REMARK   71  A    between atoms: _161  and  _164
REMARK   72  A    between atoms: _164  and  _165
REMARK   73  A    between atoms: _171  and  _173
REMARK   74  A    between atoms: _173  and  _174
REMARK   75  A    between atoms: _173  and  _176
REMARK   76  A    between atoms: _176  and  _177
REMARK   77  A    between atoms: _180  and  _182
REMARK   78  A    between atoms: _182  and  _183
REMARK   79  A    between atoms: _182  and  _185
REMARK   80  A    between atoms: _185  and  _186
REMARK   81  A    between atoms: _189  and  _191
REMARK   82  A    between atoms: _191  and  _192
REMARK   83  A    between atoms: _191  and  _194
REMARK   84  A    between atoms: _194  and  _195
REMARK   85  A    between atoms: _195  and  _196
REMARK   86  A    between atoms: _198  and  _200
REMARK   87  A    between atoms: _200  and  _201
REMARK   88  A    between atoms: _200  and  _203
REMARK   89  A    between atoms: _203  and  _204
REMARK   90  A    between atoms: _208  and  _209
REMARK   91  A    between atoms: _214  and  _216
REMARK   92  A    between atoms: _216  and  _217
REMARK   93  A    between atoms: _216  and  _219
REMARK   94  A    between atoms: _219  and  _220
REMARK   95  A    between atoms: _223  and  _225
REMARK   96  A    between atoms: _225  and  _226
REMARK   97  A    between atoms: _225  and  _228
REMARK   98  A    between atoms: _228  and  _229
REMARK   99  A    between atoms: _234  and  _236
REMARK  100  A    between atoms: _236  and  _237
REMARK  101  A    between atoms: _236  and  _239
REMARK  102  A    between atoms: _239  and  _240
REMARK  103  A    between atoms: _243  and  _245
REMARK  104  A    between atoms: _245  and  _246
REMARK  105  A    between atoms: _248  and  _250
REMARK  106  A    between atoms: _250  and  _251
REMARK  107  A    between atoms: _250  and  _253
REMARK  108  A    between atoms: _253  and  _254
REMARK  109  A    between atoms: _254  and  _255
REMARK  110  A    between atoms: _255  and  _256
REMARK  111  A    between atoms: _265  and  _267
REMARK  112  A    between atoms: _267  and  _268
REMARK  113  A    between atoms: _267  and  _270
REMARK  114  A    between atoms: _270  and  _271
REMARK  115  A    between atoms: _271  and  _272
REMARK  116  A    between atoms: _272  and  _273
REMARK  117  A    between atoms: _282  and  _284
REMARK  118  A    between atoms: _284  and  _285
REMARK  119  A    between atoms: _284  and  _287
REMARK  120  A    between atoms: _287  and  _288
REMARK  121  A    between atoms: _291  and  _293
REMARK  122  A    between atoms: _293  and  _294
REMARK  123  A    between atoms: _293  and  _296
REMARK  124  A    between atoms: _296  and  _297
REMARK  125  A    between atoms: _300  and  _302
REMARK  126  A    between atoms: _302  and  _303
REMARK  127  A    between atoms: _302  and  _305
REMARK  128  A    between atoms: _305  and  _306
REMARK  129  A    between atoms: _309  and  _311
REMARK  130  A    between atoms: _311  and  _312
REMARK  131  A    between atoms: _311  and  _314
REMARK  132  A    between atoms: _314  and  _315
REMARK  133  A    between atoms: _318  and  _320
REMARK  134  A    between atoms: _320  and  _321
REMARK  135  A    between atoms: _323  and  _325
REMARK  136  A    between atoms: _325  and  _326
REMARK  137  A    between atoms: _329  and  _331
REMARK  138  A    between atoms: _331  and  _332
REMARK  139  A    between atoms: _331  and  _334
REMARK  140  A    between atoms: _334  and  _335
REMARK  141  A    between atoms: _338  and  _340
REMARK  142  A    between atoms: _340  and  _341
REMARK  143  A    between atoms: _340  and  _343
REMARK  144  A    between atoms: _343  and  _344
REMARK  145  A    between atoms: _347  and  _349
REMARK  146  A    between atoms: _349  and  _350
REMARK  147  A    between atoms: _349  and  _352
REMARK  148  A    between atoms: _352  and  _353
REMARK  149  A    between atoms: _355  and  _357
REMARK  150  A    between atoms: _357  and  _358
REMARK  151  A    between atoms: _357  and  _360
REMARK  152  A    between atoms: _360  and  _361
REMARK  153  A    between atoms: _364  and  _366
REMARK  154  A    between atoms: _366  and  _367
REMARK  155  A    between atoms: _366  and  _369
REMARK  156  A    between atoms: _369  and  _370
REMARK  157  A    between atoms: _373  and  _375
REMARK  158  A    between atoms: _375  and  _376
REMARK  159  A    between atoms: _375  and  _378
REMARK  160  A    between atoms: _381  and  _383
REMARK  161  A    between atoms: _383  and  _384
REMARK  162  A    between atoms: _386  and  _388
REMARK  163  A    between atoms: _388  and  _389
REMARK  164  A    between atoms: _391  and  _393
REMARK  165  A    between atoms: _393  and  _394
REMARK  166  A    between atoms: _393  and  _396
REMARK  167  A    between atoms: _396  and  _397
REMARK  168  A    between atoms: _400  and  _402
REMARK  169  A    between atoms: _402  and  _403
REMARK  170  A    between atoms: _405  and  _407
REMARK  171  A    between atoms: _407  and  _408
REMARK  172  A    between atoms: _410  and  _412
REMARK  173  A    between atoms: _412  and  _413
REMARK  174  A    between atoms: _412  and  _415
REMARK  175  A    between atoms: _415  and  _416
REMARK  176  A    between atoms: _422  and  _424
REMARK  177  A    between atoms: _424  and  _425
REMARK  178  A    between atoms: _424  and  _427
REMARK  179  A    between atoms: _427  and  _428
REMARK  180  A    between atoms: _431  and  _433
REMARK  181  A    between atoms: _433  and  _434
REMARK  182  A    between atoms: _433  and  _436
REMARK  183  A    between atoms: _436  and  _437
REMARK  184  A    between atoms: _437  and  _438
REMARK  185  A    between atoms: _440  and  _442
REMARK  186  A    between atoms: _442  and  _443
REMARK  187  A    between atoms: _442  and  _445
REMARK  188  A    between atoms: _445  and  _446
REMARK  189  A    between atoms: _450  and  _451
REMARK  190  A    between atoms: _456  and  _458
REMARK  191  A    between atoms: _458  and  _459
REMARK  192  A    between atoms: _458  and  _461
REMARK  193  A    between atoms: _461  and  _462
REMARK  194  A    between atoms: _465  and  _467
REMARK  195  A    between atoms: _467  and  _468
REMARK  196  A    between atoms: _467  and  _470
REMARK  197  A    between atoms: _470  and  _471
REMARK  198  A    between atoms: _476  and  _478
REMARK  199  A    between atoms: _478  and  _479
REMARK  200  A    between atoms: _478  and  _481
REMARK  201  A    between atoms: _481  and  _482
REMARK  202  A    between atoms: _485  and  _487
REMARK  203  A    between atoms: _487  and  _488
REMARK  204  A    between atoms: _487  and  _490
REMARK  205  A    between atoms: _490  and  _491
REMARK  206  A    between atoms: _497  and  _499
REMARK  207  A    between atoms: _499  and  _500
REMARK  208  A    between atoms: _502  and  _504
REMARK  209  A    between atoms: _504  and  _505
REMARK  210  A    between atoms: _504  and  _507
REMARK  211  A    between atoms: _507  and  _508
REMARK  212  A    between atoms: _508  and  _509
REMARK  213  A    between atoms: _509  and  _510
REMARK  214  A    between atoms: _519  and  _521
REMARK  215  A    between atoms: _521  and  _522
REMARK  216  A    between atoms: _521  and  _524
REMARK  217  A    between atoms: _524  and  _525
REMARK                            x       y       z     vdW  Elec       q    Type
REMARK                         _______ _______ _______ _____ _____    ______ ____
ROOT
ATOM      1  O   HOH     1       7.829  17.692  37.343  0.00  0.00    +0.000 OA
ENDROOT
TORSDOF 0
REMARK  Name = ../refined-set-2016/1siv/1siv_pocket.pdb
REMARK  217 active torsions:
REMARK  status: ('A' for Active; 'I' for Inactive)
REMARK    1  A    between atoms: _1  and  _3
REMARK    2  A    between atoms: _3  and  _4
REMARK    3  A    between atoms: _3  and  _6
REMARK    4  A    between atoms: _6  and  _7
REMARK    5  A    between atoms: _7  and  _8
REMARK    6  A    between atoms: _8  and  _9
REMARK    7  A    between atoms: _18  and  _20
REMARK    8  A    between atoms: _20  and  _21
REMARK    9  A    between atoms: _20  and  _23
REMARK   10  A    between atoms: _23  and  _24
REMARK   11  A    between atoms: _27  and  _29
REMARK   12  A    between atoms: _29  and  _30
REMARK   13  A    between atoms: _29  and  _32
REMARK   14  A    between atoms: _32  and  _33
REMARK   15  A    between atoms: _36  and  _38
REMARK   16  A    between atoms: _38  and  _39
REMARK   17  A    between atoms: _38  and  _41
REMARK   18  A    between atoms: _41  and  _42
REMARK   19  A    between atoms: _45  and  _47
REMARK   20  A    between atoms: _47  and  _48
REMARK   21  A    between atoms: _47  and  _50
REMARK   22  A    between atoms: _50  and  _51
REMARK   23  A    between atoms: _54  and  _56
REMARK   24  A    between atoms: _56  and  _57
REMARK   25  A    between atoms: _59  and  _61
REMARK   26  A    between atoms: _61  and  _62
REMARK   27  A    between atoms: _65  and  _67
REMARK   28  A    between atoms: _67  and  _68
REMARK   29  A    between atoms: _67  and  _70
REMARK   30  A    between atoms: _70  and  _71
REMARK   31  A    between atoms: _74  and  _76
REMARK   32  A    between atoms: _76  and  _77
REMARK   33  A    between atoms: _76  and  _79
REMARK   34  A    between atoms: _79  and  _80
REMARK   35  A    between atoms: _83  and  _85
REMARK   36  A    between atoms: _85  and  _86
REMARK   37  A    between atoms: _85  and  _88
REMARK   38  A    between atoms: _88  and  _89
REMARK   39  A    between atoms: _91  and  _93
REMARK   40  A    between atoms: _93  and  _94
REMARK   41  A    between atoms: _93  and  _96
REMARK   42  A    between atoms: _96  and  _97
REMARK   43  A    between atoms: _100  and  _102
REMARK   44  A    between atoms: _102  and  _103
REMARK   45  A    between atoms: _102  and  _105
REMARK   46  A    between atoms: _105  and  _106
REMARK   47  A    between atoms: _106  and  _107
REMARK   48  A    between atoms: _107  and  _108
REMARK   49  A    between atoms: _108  and  _109
REMARK   50  A    between atoms: _113  and  _115
REMARK   51  A    between atoms: _115  and  _116
REMARK   52  A    between atoms: _115  and  _118
REMARK   53  A    between atoms: _118  and  _119
REMARK   54  A    between atoms: _122  and  _124
REMARK   55  A    between atoms: _124  and  _125
REMARK   56  A    between atoms: _124  and  _127
REMARK   57  A    between atoms: _130  and  _132
REMARK   58  A    between atoms: _132  and  _133
REMARK   59  A    between atoms: _135  and  _137
REMARK   60  A    between atoms: _137  and  _138
REMARK   61  A    between atoms: _140  and  _142
REMARK   62  A    between atoms: _142  and  _143
REMARK   63  A    between atoms: _142  and  _145
REMARK   64  A    between atoms: _145  and  _146
REMARK   65  A    between atoms: _149  and  _151
REMARK   66  A    between atoms: _151  and  _152
REMARK   67  A    between atoms: _154  and  _156
REMARK   68  A    between atoms: _156  and  _157
REMARK   69  A    between atoms: _159  and  _161
REMARK   70  A    between atoms: _161  and  _162
REMARK   71  A    between atoms: _161  and  _164
REMARK   72  A    between atoms: _164  and  _165
REMARK   73  A    between atoms: _171  and  _173
REMARK   74  A    between atoms: _173  and  _174
REMARK   75  A    between atoms: _173  and  _176
REMARK   76  A    between atoms: _176  and  _177
REMARK   77  A    between atoms: _180  and  _182
REMARK   78  A    between atoms: _182  and  _183
REMARK   79  A    between atoms: _182  and  _185
REMARK   80  A    between atoms: _185  and  _186
REMARK   81  A    between atoms: _189  and  _191
REMARK   82  A    between atoms: _191  and  _192
REMARK   83  A    between atoms: _191  and  _194
REMARK   84  A    between atoms: _194  and  _195
REMARK   85  A    between atoms: _195  and  _196
REMARK   86  A    between atoms: _198  and  _200
REMARK   87  A    between atoms: _200  and  _201
REMARK   88  A    between atoms: _200  and  _203
REMARK   89  A    between atoms: _203  and  _204
REMARK   90  A    between atoms: _208  and  _209
REMARK   91  A    between atoms: _214  and  _216
REMARK   92  A    between atoms: _216  and  _217
REMARK   93  A    between atoms: _216  and  _219
REMARK   94  A    between atoms: _219  and  _220
REMARK   95  A    between atoms: _223  and  _225
REMARK   96  A    between atoms: _225  and  _226
REMARK   97  A    between atoms: _225  and  _228
REMARK   98  A    between atoms: _228  and  _229
REMARK   99  A    between atoms: _234  and  _236
REMARK  100  A    between atoms: _236  and  _237
REMARK  101  A    between atoms: _236  and  _239
REMARK  102  A    between atoms: _239  and  _240
REMARK  103  A    between atoms: _243  and  _245
REMARK  104  A    between atoms: _245  and  _246
REMARK  105  A    between atoms: _248  and  _250
REMARK  106  A    between atoms: _250  and  _251
REMARK  107  A    between atoms: _250  and  _253
REMARK  108  A    between atoms: _253  and  _254
REMARK  109  A    between atoms: _254  and  _255
REMARK  110  A    between atoms: _255  and  _256
REMARK  111  A    between atoms: _265  and  _267
REMARK  112  A    between atoms: _267  and  _268
REMARK  113  A    between atoms: _267  and  _270
REMARK  114  A    between atoms: _270  and  _271
REMARK  115  A    between atoms: _271  and  _272
REMARK  116  A    between atoms: _272  and  _273
REMARK  117  A    between atoms: _282  and  _284
REMARK  118  A    between atoms: _284  and  _285
REMARK  119  A    between atoms: _284  and  _287
REMARK  120  A    between atoms: _287  and  _288
REMARK  121  A    between atoms: _291  and  _293
REMARK  122  A    between atoms: _293  and  _294
REMARK  123  A    between atoms: _293  and  _296
REMARK  124  A    between atoms: _296  and  _297
REMARK  125  A    between atoms: _300  and  _302
REMARK  126  A    between atoms: _302  and  _303
REMARK  127  A    between atoms: _302  and  _305
REMARK  128  A    between atoms: _305  and  _306
REMARK  129  A    between atoms: _309  and  _311
REMARK  130  A    between atoms: _311  and  _312
REMARK  131  A    between atoms: _311  and  _314
REMARK  132  A    between atoms: _314  and  _315
REMARK  133  A    between atoms: _318  and  _320
REMARK  134  A    between atoms: _320  and  _321
REMARK  135  A    between atoms: _323  and  _325
REMARK  136  A    between atoms: _325  and  _326
REMARK  137  A    between atoms: _329  and  _331
REMARK  138  A    between atoms: _331  and  _332
REMARK  139  A    between atoms: _331  and  _334
REMARK  140  A    between atoms: _334  and  _335
REMARK  141  A    between atoms: _338  and  _340
REMARK  142  A    between atoms: _340  and  _341
REMARK  143  A    between atoms: _340  and  _343
REMARK  144  A    between atoms: _343  and  _344
REMARK  145  A    between atoms: _347  and  _349
REMARK  146  A    between atoms: _349  and  _350
REMARK  147  A    between atoms: _349  and  _352
REMARK  148  A    between atoms: _352  and  _353
REMARK  149  A    between atoms: _355  and  _357
REMARK  150  A    between atoms: _357  and  _358
REMARK  151  A    between atoms: _357  and  _360
REMARK  152  A    between atoms: _360  and  _361
REMARK  153  A    between atoms: _364  and  _366
REMARK  154  A    between atoms: _366  and  _367
REMARK  155  A    between atoms: _366  and  _369
REMARK  156  A    between atoms: _369  and  _370
REMARK  157  A    between atoms: _373  and  _375
REMARK  158  A    between atoms: _375  and  _376
REMARK  159  A    between atoms: _375  and  _378
REMARK  160  A    between atoms: _381  and  _383
REMARK  161  A    between atoms: _383  and  _384
REMARK  162  A    between atoms: _386  and  _388
REMARK  163  A    between atoms: _388  and  _389
REMARK  164  A    between atoms: _391  and  _393
REMARK  165  A    between atoms: _393  and  _394
REMARK  166  A    between atoms: _393  and  _396
REMARK  167  A    between atoms: _396  and  _397
REMARK  168  A    between atoms: _400  and  _402
REMARK  169  A    between atoms: _402  and  _403
REMARK  170  A    between atoms: _405  and  _407
REMARK  171  A    between atoms: _407  and  _408
REMARK  172  A    between atoms: _410  and  _412
REMARK  173  A    between atoms: _412  and  _413
REMARK  174  A    between atoms: _412  and  _415
REMARK  175  A    between atoms: _415  and  _416
REMARK  176  A    between atoms: _422  and  _424
REMARK  177  A    between atoms: _424  and  _425
REMARK  178  A    between atoms: _424  and  _427
REMARK  179  A    between atoms: _427  and  _428
REMARK  180  A    between atoms: _431  and  _433
REMARK  181  A    between atoms: _433  and  _434
REMARK  182  A    between atoms: _433  and  _436
REMARK  183  A    between atoms: _436  and  _437
REMARK  184  A    between atoms: _437  and  _438
REMARK  185  A    between atoms: _440  and  _442
REMARK  186  A    between atoms: _442  and  _443
REMARK  187  A    between atoms: _442  and  _445
REMARK  188  A    between atoms: _445  and  _446
REMARK  189  A    between atoms: _450  and  _451
REMARK  190  A    between atoms: _456  and  _458
REMARK  191  A    between atoms: _458  and  _459
REMARK  192  A    between atoms: _458  and  _461
REMARK  193  A    between atoms: _461  and  _462
REMARK  194  A    between atoms: _465  and  _467
REMARK  195  A    between atoms: _467  and  _468
REMARK  196  A    between atoms: _467  and  _470
REMARK  197  A    between atoms: _470  and  _471
REMARK  198  A    between atoms: _476  and  _478
REMARK  199  A    between atoms: _478  and  _479
REMARK  200  A    between atoms: _478  and  _481
REMARK  201  A    between atoms: _481  and  _482
REMARK  202  A    between atoms: _485  and  _487
REMARK  203  A    between atoms: _487  and  _488
REMARK  204  A    between atoms: _487  and  _490
REMARK  205  A    between atoms: _490  and  _491
REMARK  206  A    between atoms: _497  and  _499
REMARK  207  A    between atoms: _499  and  _500
REMARK  208  A    between atoms: _502  and  _504
REMARK  209  A    between atoms: _504  and  _505
REMARK  210  A    between atoms: _504  and  _507
REMARK  211  A    between atoms: _507  and  _508
REMARK  212  A    between atoms: _508  and  _509
REMARK  213  A    between atoms: _509  and  _510
REMARK  214  A    between atoms: _519  and  _521
REMARK  215  A    between atoms: _521  and  _522
REMARK  216  A    between atoms: _521  and  _524
REMARK  217  A    between atoms: _524  and  _525
REMARK                            x       y       z     vdW  Elec       q    Type
REMARK                         _______ _______ _______ _____ _____    ______ ____
ROOT
ATOM      1  O   HOH     1       6.956  18.722  30.221  0.00  0.00    +0.000 OA
ENDROOT
TORSDOF 0
