REMARK  Name = ../refined-set-2016/2gss/2gss_pocket.pdb
REMARK  124 active torsions:
REMARK  status: ('A' for Active; 'I' for Inactive)
REMARK    1  A    between atoms: _1  and  _3
REMARK    2  A    between atoms: _3  and  _4
REMARK    3  A    between atoms: _3  and  _6
REMARK    4  A    between atoms: _6  and  _7
REMARK    5  A    between atoms: _12  and  _13
REMARK    6  A    between atoms: _15  and  _17
REMARK    7  A    between atoms: _17  and  _18
REMARK    8  A    between atoms: _17  and  _20
REMARK    9  A    between atoms: _20  and  _21
REMARK   10  A    between atoms: _28  and  _29
REMARK   11  A    between atoms: _34  and  _36
REMARK   12  A    between atoms: _36  and  _37
REMARK   13  A    between atoms: _36  and  _39
REMARK   14  A    between atoms: _42  and  _44
REMARK   15  A    between atoms: _44  and  _45
REMARK   16  A    between atoms: _44  and  _47
REMARK   17  A    between atoms: _47  and  _48
REMARK   18  A    between atoms: _48  and  _49
REMARK   19  A    between atoms: _49  and  _50
REMARK   20  A    between atoms: _59  and  _61
REMARK   21  A    between atoms: _61  and  _62
REMARK   22  A    between atoms: _64  and  _66
REMARK   23  A    between atoms: _66  and  _67
REMARK   24  A    between atoms: _66  and  _69
REMARK   25  A    between atoms: _69  and  _70
REMARK   26  A    between atoms: _70  and  _71
REMARK   27  A    between atoms: _71  and  _72
REMARK   28  A    between atoms: _81  and  _83
REMARK   29  A    between atoms: _83  and  _84
REMARK   30  A    between atoms: _83  and  _86
REMARK   31  A    between atoms: _88  and  _90
REMARK   32  A    between atoms: _90  and  _91
REMARK   33  A    between atoms: _90  and  _93
REMARK   34  A    between atoms: _96  and  _98
REMARK   35  A    between atoms: _98  and  _99
REMARK   36  A    between atoms: _98  and  _101
REMARK   37  A    between atoms: _101  and  _102
REMARK   38  A    between atoms: _105  and  _107
REMARK   39  A    between atoms: _107  and  _108
REMARK   40  A    between atoms: _107  and  _110
REMARK   41  A    between atoms: _113  and  _115
REMARK   42  A    between atoms: _115  and  _116
REMARK   43  A    between atoms: _115  and  _118
REMARK   44  A    between atoms: _118  and  _119
REMARK   45  A    between atoms: _119  and  _120
REMARK   46  A    between atoms: _123  and  _125
REMARK   47  A    between atoms: _125  and  _126
REMARK   48  A    between atoms: _125  and  _128
REMARK   49  A    between atoms: _128  and  _129
REMARK   50  A    between atoms: _132  and  _134
REMARK   51  A    between atoms: _134  and  _135
REMARK   52  A    between atoms: _134  and  _137
REMARK   53  A    between atoms: _137  and  _138
REMARK   54  A    between atoms: _148  and  _150
REMARK   55  A    between atoms: _150  and  _151
REMARK   56  A    between atoms: _150  and  _153
REMARK   57  A    between atoms: _153  and  _154
REMARK   58  A    between atoms: _154  and  _155
REMARK   59  A    between atoms: _160  and  _162
REMARK   60  A    between atoms: _162  and  _163
REMARK   61  A    between atoms: _162  and  _165
REMARK   62  A    between atoms: _165  and  _166
REMARK   63  A    between atoms: _166  and  _167
REMARK   64  A    between atoms: _172  and  _174
REMARK   65  A    between atoms: _174  and  _175
REMARK   66  A    between atoms: _174  and  _177
REMARK   67  A    between atoms: _177  and  _178
REMARK   68  A    between atoms: _182  and  _183
REMARK   69  A    between atoms: _188  and  _190
REMARK   70  A    between atoms: _190  and  _191
REMARK   71  A    between atoms: _190  and  _193
REMARK   72  A    between atoms: _193  and  _194
REMARK   73  A    between atoms: _196  and  _198
REMARK   74  A    between atoms: _198  and  _199
REMARK   75  A    between atoms: _198  and  _201
REMARK   76  A    between atoms: _201  and  _202
REMARK   77  A    between atoms: _202  and  _203
REMARK   78  A    between atoms: _206  and  _208
REMARK   79  A    between atoms: _208  and  _209
REMARK   80  A    between atoms: _208  and  _211
REMARK   81  A    between atoms: _211  and  _212
REMARK   82  A    between atoms: _212  and  _213
REMARK   83  A    between atoms: _213  and  _214
REMARK   84  A    between atoms: _223  and  _225
REMARK   85  A    between atoms: _225  and  _226
REMARK   86  A    between atoms: _225  and  _228
REMARK   87  A    between atoms: _230  and  _232
REMARK   88  A    between atoms: _232  and  _233
REMARK   89  A    between atoms: _232  and  _235
REMARK   90  A    between atoms: _235  and  _236
REMARK   91  A    between atoms: _239  and  _241
REMARK   92  A    between atoms: _241  and  _242
REMARK   93  A    between atoms: _241  and  _244
REMARK   94  A    between atoms: _244  and  _245
REMARK   95  A    between atoms: _247  and  _249
REMARK   96  A    between atoms: _249  and  _250
REMARK   97  A    between atoms: _249  and  _252
REMARK   98  A    between atoms: _252  and  _253
REMARK   99  A    between atoms: _256  and  _258
REMARK  100  A    between atoms: _258  and  _259
REMARK  101  A    between atoms: _258  and  _261
REMARK  102  A    between atoms: _261  and  _262
REMARK  103  A    between atoms: _267  and  _268
REMARK  104  A    between atoms: _271  and  _272
REMARK  105  A    between atoms: _277  and  _279
REMARK  106  A    between atoms: _279  and  _280
REMARK  107  A    between atoms: _279  and  _282
REMARK  108  A    between atoms: _282  and  _283
REMARK  109  A    between atoms: _286  and  _288
REMARK  110  A    between atoms: _288  and  _289
REMARK  111  A    between atoms: _288  and  _291
REMARK  112  A    between atoms: _291  and  _292
REMARK  113  A    between atoms: _297  and  _299
REMARK  114  A    between atoms: _299  and  _300
REMARK  115  A    between atoms: _302  and  _304
REMARK  116  A    between atoms: _304  and  _305
REMARK  117  A    between atoms: _304  and  _307
REMARK  118  A    between atoms: _307  and  _308
REMARK  119  A    between atoms: _313  and  _315
REMARK  120  A    between atoms: _315  and  _316
REMARK  121  A    between atoms: _318  and  _320
REMARK  122  A    between atoms: _320  and  _321
REMARK  123  A    between atoms: _320  and  _323
REMARK  124  A    between atoms: _323  and  _324
REMARK                            x       y       z     vdW  Elec       q    Type
REMARK                         _______ _______ _______ _____ _____    ______ ____
ROOT
ATOM      1  CA  ARG A   5      14.421  -3.853  26.465  0.00  0.00    +0.149 C 
ENDROOT
BRANCH   1   4
ATOM      2  C   VAL A   4      13.007  -3.483  28.406  0.00  0.00    +0.241 C 
ATOM      3  O   VAL A   4      13.888  -2.831  28.979  0.00  0.00    -0.273 OA
ATOM      4  N   ARG A   5      13.187  -4.048  27.218  0.00  0.00    -0.297 N 
ATOM      5  H   ARG A   5      12.433  -4.641  26.816  0.00  0.00    +0.150 HD
BRANCH   2   6
ATOM      6  CA  VAL A   4      11.653  -3.713  29.081  0.00  0.00    +0.149 C 
BRANCH   6   9
ATOM      7  C   PRO A   3      11.171  -3.997  31.466  0.00  0.00    +0.241 C 
ATOM      8  O   PRO A   3      10.385  -4.928  31.251  0.00  0.00    -0.273 OA
ATOM      9  N   VAL A   4      11.808  -3.355  30.487  0.00  0.00    -0.297 N 
ATOM     10  H   VAL A   4      12.441  -2.568  30.735  0.00  0.00    +0.150 HD
BRANCH   7  16
ATOM     11  C   PHE A   2      11.841  -1.113  32.650  0.00  0.00    +0.244 C 
ATOM     12  N   PRO A   3      11.072  -2.103  33.119  0.00  0.00    -0.272 N 
ATOM     13  CD  PRO A   3       9.924  -1.992  34.041  0.00  0.00    +0.094 C 
ATOM     14  CG  PRO A   3       9.371  -3.394  34.048  0.00  0.00    +0.024 C 
ATOM     15  CB  PRO A   3      10.610  -4.247  33.941  0.00  0.00    +0.031 C 
ATOM     16  CA  PRO A   3      11.448  -3.504  32.897  0.00  0.00    +0.152 C 
ATOM     17  O   PHE A   2      12.899  -1.334  32.055  0.00  0.00    -0.273 OA
BRANCH  11  18
ATOM     18  CA  PHE A   2      11.391   0.319  32.915  0.00  0.00    +0.153 C 
BRANCH  18  21
ATOM     19  C   TYR A   1      13.574   1.222  33.565  0.00  0.00    +0.239 C 
ATOM     20  O   TYR A   1      13.619   0.568  34.610  0.00  0.00    -0.274 OA
ATOM     21  N   PHE A   2      12.555   1.174  32.713  0.00  0.00    -0.297 N 
ATOM     22  H   PHE A   2      12.589   1.773  31.864  0.00  0.00    +0.150 HD
BRANCH  19  23
ATOM     23  CA  TYR A   1      14.721   2.135  33.157  0.00  0.00    +0.149 C 
BRANCH  23  24
ATOM     24  N   TYR A   1      15.704   2.326  34.220  0.00  0.00    -0.238 NA
ATOM     25  H   TYR A   1      15.759   1.639  34.998  0.00  0.00    +0.142 HD
ENDBRANCH  23  24
BRANCH  23  26
ATOM     26  CB  TYR A   1      15.439   1.518  31.954  0.00  0.00    +0.053 C 
BRANCH  26  27
ATOM     27  CG  TYR A   1      14.725   1.642  30.622  0.00  0.00    -0.020 A 
ATOM     28  CD2 TYR A   1      14.304   2.889  30.145  0.00  0.00    -0.001 A 
ATOM     29  CE2 TYR A   1      13.718   3.018  28.886  0.00  0.00    +0.036 A 
ATOM     30  CZ  TYR A   1      13.552   1.887  28.094  0.00  0.00    +0.134 A 
ATOM     31  CE1 TYR A   1      13.954   0.635  28.550  0.00  0.00    +0.036 A 
ATOM     32  CD1 TYR A   1      14.531   0.520  29.805  0.00  0.00    -0.001 A 
BRANCH  30  33
ATOM     33  OH  TYR A   1      12.997   2.006  26.840  0.00  0.00    -0.506 OA
ATOM     34  HH  TYR A   1      12.768   2.954  26.671  0.00  0.00    +0.292 HD
ENDBRANCH  30  33
ENDBRANCH  26  27
ENDBRANCH  23  26
ENDBRANCH  19  23
ENDBRANCH  18  21
BRANCH  18  35
ATOM     35  CB  PHE A   2      10.287   0.702  31.925  0.00  0.00    +0.055 C 
BRANCH  35  36
ATOM     36  CG  PHE A   2       9.888   2.145  31.998  0.00  0.00    -0.020 A 
ATOM     37  CD2 PHE A   2       9.299   2.657  33.150  0.00  0.00    -0.004 A 
ATOM     38  CE2 PHE A   2       8.962   4.010  33.237  0.00  0.00    -0.000 A 
ATOM     39  CZ  PHE A   2       9.214   4.862  32.159  0.00  0.00    -0.000 A 
ATOM     40  CE1 PHE A   2       9.800   4.358  31.001  0.00  0.00    -0.000 A 
ATOM     41  CD1 PHE A   2      10.133   3.003  30.927  0.00  0.00    -0.004 A 
ENDBRANCH  35  36
ENDBRANCH  18  35
ENDBRANCH  11  18
ENDBRANCH   7  16
ENDBRANCH   6   9
BRANCH   6  42
ATOM     42  CB  VAL A   4      10.583  -2.829  28.343  0.00  0.00    +0.027 C 
ATOM     43  CG2 VAL A   4       9.258  -2.822  29.096  0.00  0.00    +0.002 C 
ATOM     44  CG1 VAL A   4      11.093  -1.415  28.140  0.00  0.00    +0.002 C 
ENDBRANCH   6  42
ENDBRANCH   2   6
ENDBRANCH   1   4
BRANCH   1  45
ATOM     45  C   ARG A   5      14.409  -2.420  25.931  0.00  0.00    +0.241 C 
ATOM     46  O   ARG A   5      15.270  -1.614  26.283  0.00  0.00    -0.273 OA
ATOM     47  N   GLY A   6      13.413  -2.110  25.103  0.00  0.00    -0.295 N 
ATOM     48  H   GLY A   6      12.729  -2.850  24.845  0.00  0.00    +0.150 HD
BRANCH  47  49
ATOM     49  CA  GLY A   6      13.245  -0.776  24.546  0.00  0.00    +0.176 C 
BRANCH  49  50
ATOM     50  C   GLY A   6      14.500  -0.029  24.139  0.00  0.00    +0.243 C 
ATOM     51  N   ARG A   7      14.613   1.218  24.594  0.00  0.00    -0.297 N 
ATOM     52  H   ARG A   7      13.860   1.603  25.199  0.00  0.00    +0.150 HD
ATOM     53  O   GLY A   6      15.360  -0.578  23.448  0.00  0.00    -0.273 OA
BRANCH  51  54
ATOM     54  CA  ARG A   7      15.762   2.062  24.270  0.00  0.00    +0.149 C 
BRANCH  54  55
ATOM     55  C   ARG A   7      17.055   1.772  25.039  0.00  0.00    +0.241 C 
ATOM     56  N   CYS A   8      17.042   0.761  25.900  0.00  0.00    -0.297 N 
ATOM     57  H   CYS A   8      16.168   0.215  26.039  0.00  0.00    +0.150 HD
ATOM     58  O   ARG A   7      18.055   2.467  24.853  0.00  0.00    -0.273 OA
BRANCH  56  59
ATOM     59  CA  CYS A   8      18.240   0.409  26.653  0.00  0.00    +0.149 C 
BRANCH  59  60
ATOM     60  CB  CYS A   8      17.939   0.257  28.145  0.00  0.00    +0.096 C 
ATOM     61  SG  CYS A   8      17.737   1.824  29.004  0.00  0.00    -0.080 S 
ENDBRANCH  59  60
BRANCH  59  62
ATOM     62  C   CYS A   8      18.896  -0.858  26.133  0.00  0.00    +0.228 C 
ATOM     63  O   CYS A   8      20.010  -1.198  26.537  0.00  0.00    -0.286 OA
ENDBRANCH  59  62
ENDBRANCH  56  59
ENDBRANCH  54  55
BRANCH  54  64
ATOM     64  CB  ARG A   7      15.390   3.543  24.400  0.00  0.00    +0.033 C 
BRANCH  64  65
ATOM     65  CG  ARG A   7      14.457   4.033  23.300  0.00  0.00    +0.045 C 
BRANCH  65  66
ATOM     66  CD  ARG A   7      14.168   5.514  23.426  0.00  0.00    +0.174 C 
BRANCH  66  67
ATOM     67  NE  ARG A   7      13.490   6.030  22.241  0.00  0.00    -0.265 N 
ATOM     68  HE  ARG A   7      12.453   6.103  22.268  0.00  0.00    +0.259 HD
ATOM     69  CZ  ARG A   7      14.111   6.414  21.127  0.00  0.00    +0.342 C 
ATOM     70  NH2 ARG A   7      15.434   6.368  21.050  0.00  0.00    -0.292 N 
ATOM     71 HH21 ARG A   7      15.991   6.031  21.861  0.00  0.00    +0.255 HD
ATOM     72 HH22 ARG A   7      15.915   6.669  20.178  0.00  0.00    +0.255 HD
ATOM     73  NH1 ARG A   7      13.411   6.864  20.092  0.00  0.00    -0.292 N 
ATOM     74 HH11 ARG A   7      12.374   6.918  20.149  0.00  0.00    +0.255 HD
ATOM     75 HH12 ARG A   7      13.900   7.163  19.224  0.00  0.00    +0.255 HD
ENDBRANCH  66  67
ENDBRANCH  65  66
ENDBRANCH  64  65
ENDBRANCH  54  64
ENDBRANCH  51  54
ENDBRANCH  49  50
ENDBRANCH  47  49
ENDBRANCH   1  45
BRANCH   1  76
ATOM     76  CB  ARG A   5      14.504  -4.855  25.312  0.00  0.00    +0.033 C 
BRANCH  76  77
ATOM     77  CG  ARG A   5      14.492  -6.299  25.770  0.00  0.00    +0.045 C 
BRANCH  77  78
ATOM     78  CD  ARG A   5      14.629  -7.257  24.604  0.00  0.00    +0.174 C 
BRANCH  78  79
ATOM     79  NE  ARG A   5      14.460  -8.627  25.053  0.00  0.00    -0.265 N 
ATOM     80  HE  ARG A   5      14.559  -8.817  26.071  0.00  0.00    +0.259 HD
ATOM     81  CZ  ARG A   5      14.188  -9.654  24.259  0.00  0.00    +0.342 C 
ATOM     82  NH2 ARG A   5      14.014 -10.853  24.790  0.00  0.00    -0.292 N 
ATOM     83 HH21 ARG A   5      14.091 -10.982  25.819  0.00  0.00    +0.255 HD
ATOM     84 HH22 ARG A   5      13.800 -11.667  24.178  0.00  0.00    +0.255 HD
ATOM     85  NH1 ARG A   5      14.058  -9.484  22.949  0.00  0.00    -0.292 N 
ATOM     86 HH11 ARG A   5      14.170  -8.537  22.534  0.00  0.00    +0.255 HD
ATOM     87 HH12 ARG A   5      13.845 -10.298  22.338  0.00  0.00    +0.255 HD
ENDBRANCH  78  79
ENDBRANCH  77  78
ENDBRANCH  76  77
ENDBRANCH   1  76
TORSDOF 30
REMARK  Name = ../refined-set-2016/2gss/2gss_pocket.pdb
REMARK  124 active torsions:
REMARK  status: ('A' for Active; 'I' for Inactive)
REMARK    1  A    between atoms: _1  and  _3
REMARK    2  A    between atoms: _3  and  _4
REMARK    3  A    between atoms: _3  and  _6
REMARK    4  A    between atoms: _6  and  _7
REMARK    5  A    between atoms: _12  and  _13
REMARK    6  A    between atoms: _15  and  _17
REMARK    7  A    between atoms: _17  and  _18
REMARK    8  A    between atoms: _17  and  _20
REMARK    9  A    between atoms: _20  and  _21
REMARK   10  A    between atoms: _28  and  _29
REMARK   11  A    between atoms: _34  and  _36
REMARK   12  A    between atoms: _36  and  _37
REMARK   13  A    between atoms: _36  and  _39
REMARK   14  A    between atoms: _42  and  _44
REMARK   15  A    between atoms: _44  and  _45
REMARK   16  A    between atoms: _44  and  _47
REMARK   17  A    between atoms: _47  and  _48
REMARK   18  A    between atoms: _48  and  _49
REMARK   19  A    between atoms: _49  and  _50
REMARK   20  A    between atoms: _59  and  _61
REMARK   21  A    between atoms: _61  and  _62
REMARK   22  A    between atoms: _64  and  _66
REMARK   23  A    between atoms: _66  and  _67
REMARK   24  A    between atoms: _66  and  _69
REMARK   25  A    between atoms: _69  and  _70
REMARK   26  A    between atoms: _70  and  _71
REMARK   27  A    between atoms: _71  and  _72
REMARK   28  A    between atoms: _81  and  _83
REMARK   29  A    between atoms: _83  and  _84
REMARK   30  A    between atoms: _83  and  _86
REMARK   31  A    between atoms: _88  and  _90
REMARK   32  A    between atoms: _90  and  _91
REMARK   33  A    between atoms: _90  and  _93
REMARK   34  A    between atoms: _96  and  _98
REMARK   35  A    between atoms: _98  and  _99
REMARK   36  A    between atoms: _98  and  _101
REMARK   37  A    between atoms: _101  and  _102
REMARK   38  A    between atoms: _105  and  _107
REMARK   39  A    between atoms: _107  and  _108
REMARK   40  A    between atoms: _107  and  _110
REMARK   41  A    between atoms: _113  and  _115
REMARK   42  A    between atoms: _115  and  _116
REMARK   43  A    between atoms: _115  and  _118
REMARK   44  A    between atoms: _118  and  _119
REMARK   45  A    between atoms: _119  and  _120
REMARK   46  A    between atoms: _123  and  _125
REMARK   47  A    between atoms: _125  and  _126
REMARK   48  A    between atoms: _125  and  _128
REMARK   49  A    between atoms: _128  and  _129
REMARK   50  A    between atoms: _132  and  _134
REMARK   51  A    between atoms: _134  and  _135
REMARK   52  A    between atoms: _134  and  _137
REMARK   53  A    between atoms: _137  and  _138
REMARK   54  A    between atoms: _148  and  _150
REMARK   55  A    between atoms: _150  and  _151
REMARK   56  A    between atoms: _150  and  _153
REMARK   57  A    between atoms: _153  and  _154
REMARK   58  A    between atoms: _154  and  _155
REMARK   59  A    between atoms: _160  and  _162
REMARK   60  A    between atoms: _162  and  _163
REMARK   61  A    between atoms: _162  and  _165
REMARK   62  A    between atoms: _165  and  _166
REMARK   63  A    between atoms: _166  and  _167
REMARK   64  A    between atoms: _172  and  _174
REMARK   65  A    between atoms: _174  and  _175
REMARK   66  A    between atoms: _174  and  _177
REMARK   67  A    between atoms: _177  and  _178
REMARK   68  A    between atoms: _182  and  _183
REMARK   69  A    between atoms: _188  and  _190
REMARK   70  A    between atoms: _190  and  _191
REMARK   71  A    between atoms: _190  and  _193
REMARK   72  A    between atoms: _193  and  _194
REMARK   73  A    between atoms: _196  and  _198
REMARK   74  A    between atoms: _198  and  _199
REMARK   75  A    between atoms: _198  and  _201
REMARK   76  A    between atoms: _201  and  _202
REMARK   77  A    between atoms: _202  and  _203
REMARK   78  A    between atoms: _206  and  _208
REMARK   79  A    between atoms: _208  and  _209
REMARK   80  A    between atoms: _208  and  _211
REMARK   81  A    between atoms: _211  and  _212
REMARK   82  A    between atoms: _212  and  _213
REMARK   83  A    between atoms: _213  and  _214
REMARK   84  A    between atoms: _223  and  _225
REMARK   85  A    between atoms: _225  and  _226
REMARK   86  A    between atoms: _225  and  _228
REMARK   87  A    between atoms: _230  and  _232
REMARK   88  A    between atoms: _232  and  _233
REMARK   89  A    between atoms: _232  and  _235
REMARK   90  A    between atoms: _235  and  _236
REMARK   91  A    between atoms: _239  and  _241
REMARK   92  A    between atoms: _241  and  _242
REMARK   93  A    between atoms: _241  and  _244
REMARK   94  A    between atoms: _244  and  _245
REMARK   95  A    between atoms: _247  and  _249
REMARK   96  A    between atoms: _249  and  _250
REMARK   97  A    between atoms: _249  and  _252
REMARK   98  A    between atoms: _252  and  _253
REMARK   99  A    between atoms: _256  and  _258
REMARK  100  A    between atoms: _258  and  _259
REMARK  101  A    between atoms: _258  and  _261
REMARK  102  A    between atoms: _261  and  _262
REMARK  103  A    between atoms: _267  and  _268
REMARK  104  A    between atoms: _271  and  _272
REMARK  105  A    between atoms: _277  and  _279
REMARK  106  A    between atoms: _279  and  _280
REMARK  107  A    between atoms: _279  and  _282
REMARK  108  A    between atoms: _282  and  _283
REMARK  109  A    between atoms: _286  and  _288
REMARK  110  A    between atoms: _288  and  _289
REMARK  111  A    between atoms: _288  and  _291
REMARK  112  A    between atoms: _291  and  _292
REMARK  113  A    between atoms: _297  and  _299
REMARK  114  A    between atoms: _299  and  _300
REMARK  115  A    between atoms: _302  and  _304
REMARK  116  A    between atoms: _304  and  _305
REMARK  117  A    between atoms: _304  and  _307
REMARK  118  A    between atoms: _307  and  _308
REMARK  119  A    between atoms: _313  and  _315
REMARK  120  A    between atoms: _315  and  _316
REMARK  121  A    between atoms: _318  and  _320
REMARK  122  A    between atoms: _320  and  _321
REMARK  123  A    between atoms: _320  and  _323
REMARK  124  A    between atoms: _323  and  _324
REMARK                            x       y       z     vdW  Elec       q    Type
REMARK                         _______ _______ _______ _____ _____    ______ ____
ROOT
ATOM      1  C   GLU A   4       4.505   3.468  40.255  0.00  0.00    +0.241 C 
ATOM      2  O   GLU A   4       4.052   4.588  40.494  0.00  0.00    -0.273 OA
ATOM      3  N   THR A   5       5.806   3.178  40.327  0.00  0.00    -0.295 N 
ATOM      4  H   THR A   5       6.119   2.213  40.096  0.00  0.00    +0.150 HD
ENDROOT
BRANCH   3   5
ATOM      5  CA  THR A   5       6.806   4.170  40.719  0.00  0.00    +0.176 C 
BRANCH   5   6
ATOM      6  C   THR A   5       6.773   5.366  39.769  0.00  0.00    +0.243 C 
ATOM      7  O   THR A   5       6.799   6.520  40.205  0.00  0.00    -0.273 OA
ATOM      8  N   TRP A   6       6.745   5.080  38.470  0.00  0.00    -0.297 N 
ATOM      9  H   TRP A   6       6.742   4.083  38.173  0.00  0.00    +0.150 HD
BRANCH   8  10
ATOM     10  CA  TRP A   6       6.718   6.122  37.450  0.00  0.00    +0.153 C 
BRANCH  10  11
ATOM     11  C   TRP A   6       5.479   7.000  37.595  0.00  0.00    +0.241 C 
ATOM     12  N   GLN A   7       4.340   6.367  37.859  0.00  0.00    -0.298 N 
ATOM     13  H   GLN A   7       4.342   5.332  37.957  0.00  0.00    +0.150 HD
ATOM     14  O   TRP A   6       5.558   8.227  37.497  0.00  0.00    -0.273 OA
BRANCH  12  15
ATOM     15  CA  GLN A   7       3.089   7.097  38.014  0.00  0.00    +0.137 C 
BRANCH  15  16
ATOM     16  C   GLN A   7       3.001   7.919  39.294  0.00  0.00    +0.227 C 
ATOM     17  O   GLN A   7       2.133   8.781  39.413  0.00  0.00    -0.286 OA
ENDBRANCH  15  16
BRANCH  15  18
ATOM     18  CB  GLN A   7       1.900   6.155  37.878  0.00  0.00    +0.037 C 
BRANCH  18  19
ATOM     19  CG  GLN A   7       1.749   5.624  36.471  0.00  0.00    +0.087 C 
BRANCH  19  20
ATOM     20  CD  GLN A   7       0.625   4.618  36.329  0.00  0.00    +0.219 C 
ATOM     21  OE1 GLN A   7       0.183   4.006  37.306  0.00  0.00    -0.275 OA
ATOM     22  NE2 GLN A   7       0.179   4.415  35.095  0.00  0.00    -0.329 N 
ATOM     23 HE21 GLN A   7      -0.572   3.717  34.922  0.00  0.00    +0.145 HD
ATOM     24 HE22 GLN A   7       0.581   4.954  34.302  0.00  0.00    +0.145 HD
ENDBRANCH  19  20
ENDBRANCH  18  19
ENDBRANCH  15  18
ENDBRANCH  12  15
ENDBRANCH  10  11
BRANCH  10  25
ATOM     25  CB  TRP A   6       6.768   5.498  36.048  0.00  0.00    +0.057 C 
BRANCH  25  26
ATOM     26  CG  TRP A   6       6.995   6.505  34.939  0.00  0.00    -0.002 A 
ATOM     27  CD2 TRP A   6       8.152   7.335  34.751  0.00  0.00    +0.013 A 
ATOM     28  CE3 TRP A   6       9.363   7.493  35.444  0.00  0.00    +0.001 A 
ATOM     29  CZ3 TRP A   6      10.289   8.417  34.969  0.00  0.00    +0.000 A 
ATOM     30  CH2 TRP A   6      10.028   9.178  33.814  0.00  0.00    +0.001 A 
ATOM     31  CZ2 TRP A   6       8.855   9.044  33.117  0.00  0.00    +0.017 A 
ATOM     32  CE2 TRP A   6       7.923   8.117  33.596  0.00  0.00    +0.056 A 
ATOM     33  NE1 TRP A   6       6.684   7.774  33.112  0.00  0.00    -0.352 N 
ATOM     34  HE1 TRP A   6       6.232   8.182  32.268  0.00  0.00    +0.166 HD
ATOM     35  CD1 TRP A   6       6.138   6.810  33.917  0.00  0.00    +0.068 A 
ENDBRANCH  25  26
ENDBRANCH  10  25
ENDBRANCH   8  10
ENDBRANCH   5   6
BRANCH   5  36
ATOM     36  CB  THR A   5       8.234   3.580  40.682  0.00  0.00    +0.137 C 
ATOM     37  CG2 THR A   5       9.228   4.540  41.325  0.00  0.00    +0.034 C 
BRANCH  36  38
ATOM     38  OG1 THR A   5       8.262   2.327  41.381  0.00  0.00    -0.382 OA
ATOM     39  HG1 THR A   5       7.635   1.695  40.948  0.00  0.00    +0.210 HD
ENDBRANCH  36  38
ENDBRANCH   5  36
ENDBRANCH   3   5
BRANCH   1  40
ATOM     40  CA  GLU A   4       3.577   2.328  39.826  0.00  0.00    +0.149 C 
BRANCH  40  42
ATOM     41  C   VAL A   3       4.212   2.344  37.471  0.00  0.00    +0.241 C 
ATOM     42  N   GLU A   4       4.128   1.693  38.631  0.00  0.00    -0.297 N 
ATOM     43  H   GLU A   4       4.463   0.710  38.687  0.00  0.00    +0.150 HD
ATOM     44  O   VAL A   3       3.876   3.523  37.341  0.00  0.00    -0.273 OA
BRANCH  41  45
ATOM     45  CA  VAL A   3       4.821   1.573  36.291  0.00  0.00    +0.149 C 
BRANCH  45  48
ATOM     46  C   THR A   2       6.922   1.055  37.401  0.00  0.00    +0.243 C 
ATOM     47  O   THR A   2       7.130   2.240  37.660  0.00  0.00    -0.273 OA
ATOM     48  N   VAL A   3       5.843   0.637  36.749  0.00  0.00    -0.297 N 
ATOM     49  H   VAL A   3       5.724  -0.379  36.561  0.00  0.00    +0.150 HD
BRANCH  46  50
ATOM     50  CA  THR A   2       7.912  -0.014  37.842  0.00  0.00    +0.176 C 
BRANCH  50  52
ATOM     51  C   VAL A   1      10.052   0.884  37.139  0.00  0.00    +0.238 C 
ATOM     52  N   THR A   2       9.204   0.599  38.121  0.00  0.00    -0.295 N 
ATOM     53  H   THR A   2       9.466   0.817  39.104  0.00  0.00    +0.150 HD
ATOM     54  O   VAL A   1       9.814   0.628  35.961  0.00  0.00    -0.274 OA
BRANCH  51  55
ATOM     55  CA  VAL A   1      11.379   1.530  37.540  0.00  0.00    +0.145 C 
BRANCH  55  56
ATOM     56  CB  VAL A   1      11.539   2.874  36.793  0.00  0.00    +0.025 C 
ATOM     57  CG2 VAL A   1      10.409   3.819  37.144  0.00  0.00    +0.002 C 
ATOM     58  CG1 VAL A   1      12.872   3.504  37.141  0.00  0.00    +0.002 C 
ENDBRANCH  55  56
BRANCH  55  59
ATOM     59  N   VAL A   1      12.455   0.611  37.201  0.00  0.00    -0.238 NA
ATOM     60  H   VAL A   1      12.721   0.498  36.202  0.00  0.00    +0.142 HD
ENDBRANCH  55  59
ENDBRANCH  51  55
ENDBRANCH  50  52
BRANCH  50  61
ATOM     61  CB  THR A   2       7.345  -0.735  39.084  0.00  0.00    +0.137 C 
ATOM     62  CG2 THR A   2       8.375  -1.695  39.663  0.00  0.00    +0.034 C 
BRANCH  61  63
ATOM     63  OG1 THR A   2       6.978   0.233  40.078  0.00  0.00    -0.382 OA
ATOM     64  HG1 THR A   2       7.777   0.757  40.338  0.00  0.00    +0.210 HD
ENDBRANCH  61  63
ENDBRANCH  50  61
ENDBRANCH  46  50
ENDBRANCH  45  48
BRANCH  45  65
ATOM     65  CB  VAL A   3       3.712   0.855  35.470  0.00  0.00    +0.027 C 
ATOM     66  CG2 VAL A   3       2.873  -0.065  36.361  0.00  0.00    +0.002 C 
ATOM     67  CG1 VAL A   3       2.843   1.875  34.752  0.00  0.00    +0.002 C 
ENDBRANCH  45  65
ENDBRANCH  41  45
ENDBRANCH  40  42
BRANCH  40  68
ATOM     68  CB  GLU A   4       3.439   1.324  40.978  0.00  0.00    +0.041 C 
BRANCH  68  69
ATOM     69  CG  GLU A   4       2.746   0.008  40.627  0.00  0.00    +0.116 C 
BRANCH  69  70
ATOM     70  CD  GLU A   4       3.700  -1.176  40.676  0.00  0.00    +0.365 C 
ATOM     71  OE2 GLU A   4       4.526  -1.249  41.620  0.00  0.00    -0.246 OA
ATOM     72  OE1 GLU A   4       3.633  -2.024  39.760  0.00  0.00    -0.246 OA
ENDBRANCH  69  70
ENDBRANCH  68  69
ENDBRANCH  40  68
ENDBRANCH   1  40
TORSDOF 28
REMARK  Name = ../refined-set-2016/2gss/2gss_pocket.pdb
REMARK  124 active torsions:
REMARK  status: ('A' for Active; 'I' for Inactive)
REMARK    1  A    between atoms: _1  and  _3
REMARK    2  A    between atoms: _3  and  _4
REMARK    3  A    between atoms: _3  and  _6
REMARK    4  A    between atoms: _6  and  _7
REMARK    5  A    between atoms: _12  and  _13
REMARK    6  A    between atoms: _15  and  _17
REMARK    7  A    between atoms: _17  and  _18
REMARK    8  A    between atoms: _17  and  _20
REMARK    9  A    between atoms: _20  and  _21
REMARK   10  A    between atoms: _28  and  _29
REMARK   11  A    between atoms: _34  and  _36
REMARK   12  A    between atoms: _36  and  _37
REMARK   13  A    between atoms: _36  and  _39
REMARK   14  A    between atoms: _42  and  _44
REMARK   15  A    between atoms: _44  and  _45
REMARK   16  A    between atoms: _44  and  _47
REMARK   17  A    between atoms: _47  and  _48
REMARK   18  A    between atoms: _48  and  _49
REMARK   19  A    between atoms: _49  and  _50
REMARK   20  A    between atoms: _59  and  _61
REMARK   21  A    between atoms: _61  and  _62
REMARK   22  A    between atoms: _64  and  _66
REMARK   23  A    between atoms: _66  and  _67
REMARK   24  A    between atoms: _66  and  _69
REMARK   25  A    between atoms: _69  and  _70
REMARK   26  A    between atoms: _70  and  _71
REMARK   27  A    between atoms: _71  and  _72
REMARK   28  A    between atoms: _81  and  _83
REMARK   29  A    between atoms: _83  and  _84
REMARK   30  A    between atoms: _83  and  _86
REMARK   31  A    between atoms: _88  and  _90
REMARK   32  A    between atoms: _90  and  _91
REMARK   33  A    between atoms: _90  and  _93
REMARK   34  A    between atoms: _96  and  _98
REMARK   35  A    between atoms: _98  and  _99
REMARK   36  A    between atoms: _98  and  _101
REMARK   37  A    between atoms: _101  and  _102
REMARK   38  A    between atoms: _105  and  _107
REMARK   39  A    between atoms: _107  and  _108
REMARK   40  A    between atoms: _107  and  _110
REMARK   41  A    between atoms: _113  and  _115
REMARK   42  A    between atoms: _115  and  _116
REMARK   43  A    between atoms: _115  and  _118
REMARK   44  A    between atoms: _118  and  _119
REMARK   45  A    between atoms: _119  and  _120
REMARK   46  A    between atoms: _123  and  _125
REMARK   47  A    between atoms: _125  and  _126
REMARK   48  A    between atoms: _125  and  _128
REMARK   49  A    between atoms: _128  and  _129
REMARK   50  A    between atoms: _132  and  _134
REMARK   51  A    between atoms: _134  and  _135
REMARK   52  A    between atoms: _134  and  _137
REMARK   53  A    between atoms: _137  and  _138
REMARK   54  A    between atoms: _148  and  _150
REMARK   55  A    between atoms: _150  and  _151
REMARK   56  A    between atoms: _150  and  _153
REMARK   57  A    between atoms: _153  and  _154
REMARK   58  A    between atoms: _154  and  _155
REMARK   59  A    between atoms: _160  and  _162
REMARK   60  A    between atoms: _162  and  _163
REMARK   61  A    between atoms: _162  and  _165
REMARK   62  A    between atoms: _165  and  _166
REMARK   63  A    between atoms: _166  and  _167
REMARK   64  A    between atoms: _172  and  _174
REMARK   65  A    between atoms: _174  and  _175
REMARK   66  A    between atoms: _174  and  _177
REMARK   67  A    between atoms: _177  and  _178
REMARK   68  A    between atoms: _182  and  _183
REMARK   69  A    between atoms: _188  and  _190
REMARK   70  A    between atoms: _190  and  _191
REMARK   71  A    between atoms: _190  and  _193
REMARK   72  A    between atoms: _193  and  _194
REMARK   73  A    between atoms: _196  and  _198
REMARK   74  A    between atoms: _198  and  _199
REMARK   75  A    between atoms: _198  and  _201
REMARK   76  A    between atoms: _201  and  _202
REMARK   77  A    between atoms: _202  and  _203
REMARK   78  A    between atoms: _206  and  _208
REMARK   79  A    between atoms: _208  and  _209
REMARK   80  A    between atoms: _208  and  _211
REMARK   81  A    between atoms: _211  and  _212
REMARK   82  A    between atoms: _212  and  _213
REMARK   83  A    between atoms: _213  and  _214
REMARK   84  A    between atoms: _223  and  _225
REMARK   85  A    between atoms: _225  and  _226
REMARK   86  A    between atoms: _225  and  _228
REMARK   87  A    between atoms: _230  and  _232
REMARK   88  A    between atoms: _232  and  _233
REMARK   89  A    between atoms: _232  and  _235
REMARK   90  A    between atoms: _235  and  _236
REMARK   91  A    between atoms: _239  and  _241
REMARK   92  A    between atoms: _241  and  _242
REMARK   93  A    between atoms: _241  and  _244
REMARK   94  A    between atoms: _244  and  _245
REMARK   95  A    between atoms: _247  and  _249
REMARK   96  A    between atoms: _249  and  _250
REMARK   97  A    between atoms: _249  and  _252
REMARK   98  A    between atoms: _252  and  _253
REMARK   99  A    between atoms: _256  and  _258
REMARK  100  A    between atoms: _258  and  _259
REMARK  101  A    between atoms: _258  and  _261
REMARK  102  A    between atoms: _261  and  _262
REMARK  103  A    between atoms: _267  and  _268
REMARK  104  A    between atoms: _271  and  _272
REMARK  105  A    between atoms: _277  and  _279
REMARK  106  A    between atoms: _279  and  _280
REMARK  107  A    between atoms: _279  and  _282
REMARK  108  A    between atoms: _282  and  _283
REMARK  109  A    between atoms: _286  and  _288
REMARK  110  A    between atoms: _288  and  _289
REMARK  111  A    between atoms: _288  and  _291
REMARK  112  A    between atoms: _291  and  _292
REMARK  113  A    between atoms: _297  and  _299
REMARK  114  A    between atoms: _299  and  _300
REMARK  115  A    between atoms: _302  and  _304
REMARK  116  A    between atoms: _304  and  _305
REMARK  117  A    between atoms: _304  and  _307
REMARK  118  A    between atoms: _307  and  _308
REMARK  119  A    between atoms: _313  and  _315
REMARK  120  A    between atoms: _315  and  _316
REMARK  121  A    between atoms: _318  and  _320
REMARK  122  A    between atoms: _320  and  _321
REMARK  123  A    between atoms: _320  and  _323
REMARK  124  A    between atoms: _323  and  _324
REMARK                            x       y       z     vdW  Elec       q    Type
REMARK                         _______ _______ _______ _____ _____    ______ ____
ROOT
ATOM      1  C   GLN A   1      12.895   9.640  31.011  0.00  0.00    +0.238 C 
ATOM      2  O   GLN A   1      13.880  10.157  31.534  0.00  0.00    -0.274 OA
ATOM      3  N   LEU A   2      12.793   8.342  30.752  0.00  0.00    -0.297 N 
ATOM      4  H   LEU A   2      11.909   7.991  30.332  0.00  0.00    +0.150 HD
ENDROOT
BRANCH   1   5
ATOM      5  CA  GLN A   1      11.700  10.475  30.589  0.00  0.00    +0.145 C 
BRANCH   5   6
ATOM      6  N   GLN A   1      11.665  11.799  31.184  0.00  0.00    -0.238 NA
ATOM      7  H   GLN A   1      12.557  12.297  31.379  0.00  0.00    +0.142 HD
ENDBRANCH   5   6
BRANCH   5   8
ATOM      8  CB  GLN A   1      11.738  10.592  29.070  0.00  0.00    +0.036 C 
BRANCH   8   9
ATOM      9  CG  GLN A   1      10.536  11.257  28.453  0.00  0.00    +0.087 C 
BRANCH   9  10
ATOM     10  CD  GLN A   1      10.590  11.212  26.951  0.00  0.00    +0.219 C 
ATOM     11  NE2 GLN A   1       9.598  10.558  26.352  0.00  0.00    -0.329 N 
ATOM     12 HE21 GLN A   1       8.826  10.153  26.918  0.00  0.00    +0.145 HD
ATOM     13 HE22 GLN A   1       9.595  10.452  25.317  0.00  0.00    +0.145 HD
ATOM     14  OE1 GLN A   1      11.536  11.716  26.336  0.00  0.00    -0.275 OA
ENDBRANCH   9  10
ENDBRANCH   8   9
ENDBRANCH   5   8
ENDBRANCH   1   5
BRANCH   3  15
ATOM     15  CA  LEU A   2      13.855   7.385  31.026  0.00  0.00    +0.149 C 
BRANCH  15  16
ATOM     16  C   LEU A   2      14.300   6.940  29.631  0.00  0.00    +0.244 C 
ATOM     17  N   PRO A   3      15.472   6.302  29.502  0.00  0.00    -0.273 N 
ATOM     18  CA  PRO A   3      16.418   5.953  30.561  0.00  0.00    +0.140 C 
ATOM     19  CB  PRO A   3      17.369   4.985  29.849  0.00  0.00    +0.030 C 
ATOM     20  CG  PRO A   3      17.419   5.539  28.465  0.00  0.00    +0.024 C 
ATOM     21  CD  PRO A   3      15.957   5.819  28.196  0.00  0.00    +0.094 C 
ATOM     22  O   LEU A   2      13.593   7.188  28.657  0.00  0.00    -0.273 OA
BRANCH  18  23
ATOM     23  C   PRO A   3      17.201   7.119  31.151  0.00  0.00    +0.227 C 
ATOM     24  O   PRO A   3      17.338   8.192  30.543  0.00  0.00    -0.286 OA
ENDBRANCH  18  23
ENDBRANCH  15  16
BRANCH  15  25
ATOM     25  CB  LEU A   2      13.308   6.198  31.829  0.00  0.00    +0.029 C 
BRANCH  25  26
ATOM     26  CG  LEU A   2      12.788   6.539  33.223  0.00  0.00    +0.002 C 
ATOM     27  CD2 LEU A   2      13.895   7.217  34.031  0.00  0.00    +0.000 C 
ATOM     28  CD1 LEU A   2      12.318   5.274  33.924  0.00  0.00    +0.000 C 
ENDBRANCH  25  26
ENDBRANCH  15  25
ENDBRANCH   3  15
TORSDOF 10
REMARK  Name = ../refined-set-2016/2gss/2gss_pocket.pdb
REMARK  124 active torsions:
REMARK  status: ('A' for Active; 'I' for Inactive)
REMARK    1  A    between atoms: _1  and  _3
REMARK    2  A    between atoms: _3  and  _4
REMARK    3  A    between atoms: _3  and  _6
REMARK    4  A    between atoms: _6  and  _7
REMARK    5  A    between atoms: _12  and  _13
REMARK    6  A    between atoms: _15  and  _17
REMARK    7  A    between atoms: _17  and  _18
REMARK    8  A    between atoms: _17  and  _20
REMARK    9  A    between atoms: _20  and  _21
REMARK   10  A    between atoms: _28  and  _29
REMARK   11  A    between atoms: _34  and  _36
REMARK   12  A    between atoms: _36  and  _37
REMARK   13  A    between atoms: _36  and  _39
REMARK   14  A    between atoms: _42  and  _44
REMARK   15  A    between atoms: _44  and  _45
REMARK   16  A    between atoms: _44  and  _47
REMARK   17  A    between atoms: _47  and  _48
REMARK   18  A    between atoms: _48  and  _49
REMARK   19  A    between atoms: _49  and  _50
REMARK   20  A    between atoms: _59  and  _61
REMARK   21  A    between atoms: _61  and  _62
REMARK   22  A    between atoms: _64  and  _66
REMARK   23  A    between atoms: _66  and  _67
REMARK   24  A    between atoms: _66  and  _69
REMARK   25  A    between atoms: _69  and  _70
REMARK   26  A    between atoms: _70  and  _71
REMARK   27  A    between atoms: _71  and  _72
REMARK   28  A    between atoms: _81  and  _83
REMARK   29  A    between atoms: _83  and  _84
REMARK   30  A    between atoms: _83  and  _86
REMARK   31  A    between atoms: _88  and  _90
REMARK   32  A    between atoms: _90  and  _91
REMARK   33  A    between atoms: _90  and  _93
REMARK   34  A    between atoms: _96  and  _98
REMARK   35  A    between atoms: _98  and  _99
REMARK   36  A    between atoms: _98  and  _101
REMARK   37  A    between atoms: _101  and  _102
REMARK   38  A    between atoms: _105  and  _107
REMARK   39  A    between atoms: _107  and  _108
REMARK   40  A    between atoms: _107  and  _110
REMARK   41  A    between atoms: _113  and  _115
REMARK   42  A    between atoms: _115  and  _116
REMARK   43  A    between atoms: _115  and  _118
REMARK   44  A    between atoms: _118  and  _119
REMARK   45  A    between atoms: _119  and  _120
REMARK   46  A    between atoms: _123  and  _125
REMARK   47  A    between atoms: _125  and  _126
REMARK   48  A    between atoms: _125  and  _128
REMARK   49  A    between atoms: _128  and  _129
REMARK   50  A    between atoms: _132  and  _134
REMARK   51  A    between atoms: _134  and  _135
REMARK   52  A    between atoms: _134  and  _137
REMARK   53  A    between atoms: _137  and  _138
REMARK   54  A    between atoms: _148  and  _150
REMARK   55  A    between atoms: _150  and  _151
REMARK   56  A    between atoms: _150  and  _153
REMARK   57  A    between atoms: _153  and  _154
REMARK   58  A    between atoms: _154  and  _155
REMARK   59  A    between atoms: _160  and  _162
REMARK   60  A    between atoms: _162  and  _163
REMARK   61  A    between atoms: _162  and  _165
REMARK   62  A    between atoms: _165  and  _166
REMARK   63  A    between atoms: _166  and  _167
REMARK   64  A    between atoms: _172  and  _174
REMARK   65  A    between atoms: _174  and  _175
REMARK   66  A    between atoms: _174  and  _177
REMARK   67  A    between atoms: _177  and  _178
REMARK   68  A    between atoms: _182  and  _183
REMARK   69  A    between atoms: _188  and  _190
REMARK   70  A    between atoms: _190  and  _191
REMARK   71  A    between atoms: _190  and  _193
REMARK   72  A    between atoms: _193  and  _194
REMARK   73  A    between atoms: _196  and  _198
REMARK   74  A    between atoms: _198  and  _199
REMARK   75  A    between atoms: _198  and  _201
REMARK   76  A    between atoms: _201  and  _202
REMARK   77  A    between atoms: _202  and  _203
REMARK   78  A    between atoms: _206  and  _208
REMARK   79  A    between atoms: _208  and  _209
REMARK   80  A    between atoms: _208  and  _211
REMARK   81  A    between atoms: _211  and  _212
REMARK   82  A    between atoms: _212  and  _213
REMARK   83  A    between atoms: _213  and  _214
REMARK   84  A    between atoms: _223  and  _225
REMARK   85  A    between atoms: _225  and  _226
REMARK   86  A    between atoms: _225  and  _228
REMARK   87  A    between atoms: _230  and  _232
REMARK   88  A    between atoms: _232  and  _233
REMARK   89  A    between atoms: _232  and  _235
REMARK   90  A    between atoms: _235  and  _236
REMARK   91  A    between atoms: _239  and  _241
REMARK   92  A    between atoms: _241  and  _242
REMARK   93  A    between atoms: _241  and  _244
REMARK   94  A    between atoms: _244  and  _245
REMARK   95  A    between atoms: _247  and  _249
REMARK   96  A    between atoms: _249  and  _250
REMARK   97  A    between atoms: _249  and  _252
REMARK   98  A    between atoms: _252  and  _253
REMARK   99  A    between atoms: _256  and  _258
REMARK  100  A    between atoms: _258  and  _259
REMARK  101  A    between atoms: _258  and  _261
REMARK  102  A    between atoms: _261  and  _262
REMARK  103  A    between atoms: _267  and  _268
REMARK  104  A    between atoms: _271  and  _272
REMARK  105  A    between atoms: _277  and  _279
REMARK  106  A    between atoms: _279  and  _280
REMARK  107  A    between atoms: _279  and  _282
REMARK  108  A    between atoms: _282  and  _283
REMARK  109  A    between atoms: _286  and  _288
REMARK  110  A    between atoms: _288  and  _289
REMARK  111  A    between atoms: _288  and  _291
REMARK  112  A    between atoms: _291  and  _292
REMARK  113  A    between atoms: _297  and  _299
REMARK  114  A    between atoms: _299  and  _300
REMARK  115  A    between atoms: _302  and  _304
REMARK  116  A    between atoms: _304  and  _305
REMARK  117  A    between atoms: _304  and  _307
REMARK  118  A    between atoms: _307  and  _308
REMARK  119  A    between atoms: _313  and  _315
REMARK  120  A    between atoms: _315  and  _316
REMARK  121  A    between atoms: _318  and  _320
REMARK  122  A    between atoms: _320  and  _321
REMARK  123  A    between atoms: _320  and  _323
REMARK  124  A    between atoms: _323  and  _324
REMARK                            x       y       z     vdW  Elec       q    Type
REMARK                         _______ _______ _______ _____ _____    ______ ____
ROOT
ATOM      1  CA  SER A   1      19.390   6.821  24.864  0.00  0.00    +0.163 C 
ENDROOT
BRANCH   1   2
ATOM      2  N   SER A   1      18.664   8.024  25.255  0.00  0.00    -0.237 NA
ATOM      3  H   SER A   1      17.635   8.070  25.109  0.00  0.00    +0.142 HD
ENDBRANCH   1   2
BRANCH   1   4
ATOM      4  C   SER A   1      20.573   7.066  23.929  0.00  0.00    +0.227 C 
ATOM      5  O   SER A   1      21.630   6.465  24.105  0.00  0.00    -0.287 OA
ENDBRANCH   1   4
BRANCH   1   6
ATOM      6  CB  SER A   1      18.443   5.778  24.269  0.00  0.00    +0.162 C 
BRANCH   6   7
ATOM      7  OG  SER A   1      17.816   6.263  23.098  0.00  0.00    -0.380 OA
ATOM      8  H   SER A   1      18.506   6.485  22.423  0.00  0.00    +0.211 HD
ENDBRANCH   6   7
ENDBRANCH   1   6
TORSDOF 4
REMARK  Name = ../refined-set-2016/2gss/2gss_pocket.pdb
REMARK  124 active torsions:
REMARK  status: ('A' for Active; 'I' for Inactive)
REMARK    1  A    between atoms: _1  and  _3
REMARK    2  A    between atoms: _3  and  _4
REMARK    3  A    between atoms: _3  and  _6
REMARK    4  A    between atoms: _6  and  _7
REMARK    5  A    between atoms: _12  and  _13
REMARK    6  A    between atoms: _15  and  _17
REMARK    7  A    between atoms: _17  and  _18
REMARK    8  A    between atoms: _17  and  _20
REMARK    9  A    between atoms: _20  and  _21
REMARK   10  A    between atoms: _28  and  _29
REMARK   11  A    between atoms: _34  and  _36
REMARK   12  A    between atoms: _36  and  _37
REMARK   13  A    between atoms: _36  and  _39
REMARK   14  A    between atoms: _42  and  _44
REMARK   15  A    between atoms: _44  and  _45
REMARK   16  A    between atoms: _44  and  _47
REMARK   17  A    between atoms: _47  and  _48
REMARK   18  A    between atoms: _48  and  _49
REMARK   19  A    between atoms: _49  and  _50
REMARK   20  A    between atoms: _59  and  _61
REMARK   21  A    between atoms: _61  and  _62
REMARK   22  A    between atoms: _64  and  _66
REMARK   23  A    between atoms: _66  and  _67
REMARK   24  A    between atoms: _66  and  _69
REMARK   25  A    between atoms: _69  and  _70
REMARK   26  A    between atoms: _70  and  _71
REMARK   27  A    between atoms: _71  and  _72
REMARK   28  A    between atoms: _81  and  _83
REMARK   29  A    between atoms: _83  and  _84
REMARK   30  A    between atoms: _83  and  _86
REMARK   31  A    between atoms: _88  and  _90
REMARK   32  A    between atoms: _90  and  _91
REMARK   33  A    between atoms: _90  and  _93
REMARK   34  A    between atoms: _96  and  _98
REMARK   35  A    between atoms: _98  and  _99
REMARK   36  A    between atoms: _98  and  _101
REMARK   37  A    between atoms: _101  and  _102
REMARK   38  A    between atoms: _105  and  _107
REMARK   39  A    between atoms: _107  and  _108
REMARK   40  A    between atoms: _107  and  _110
REMARK   41  A    between atoms: _113  and  _115
REMARK   42  A    between atoms: _115  and  _116
REMARK   43  A    between atoms: _115  and  _118
REMARK   44  A    between atoms: _118  and  _119
REMARK   45  A    between atoms: _119  and  _120
REMARK   46  A    between atoms: _123  and  _125
REMARK   47  A    between atoms: _125  and  _126
REMARK   48  A    between atoms: _125  and  _128
REMARK   49  A    between atoms: _128  and  _129
REMARK   50  A    between atoms: _132  and  _134
REMARK   51  A    between atoms: _134  and  _135
REMARK   52  A    between atoms: _134  and  _137
REMARK   53  A    between atoms: _137  and  _138
REMARK   54  A    between atoms: _148  and  _150
REMARK   55  A    between atoms: _150  and  _151
REMARK   56  A    between atoms: _150  and  _153
REMARK   57  A    between atoms: _153  and  _154
REMARK   58  A    between atoms: _154  and  _155
REMARK   59  A    between atoms: _160  and  _162
REMARK   60  A    between atoms: _162  and  _163
REMARK   61  A    between atoms: _162  and  _165
REMARK   62  A    between atoms: _165  and  _166
REMARK   63  A    between atoms: _166  and  _167
REMARK   64  A    between atoms: _172  and  _174
REMARK   65  A    between atoms: _174  and  _175
REMARK   66  A    between atoms: _174  and  _177
REMARK   67  A    between atoms: _177  and  _178
REMARK   68  A    between atoms: _182  and  _183
REMARK   69  A    between atoms: _188  and  _190
REMARK   70  A    between atoms: _190  and  _191
REMARK   71  A    between atoms: _190  and  _193
REMARK   72  A    between atoms: _193  and  _194
REMARK   73  A    between atoms: _196  and  _198
REMARK   74  A    between atoms: _198  and  _199
REMARK   75  A    between atoms: _198  and  _201
REMARK   76  A    between atoms: _201  and  _202
REMARK   77  A    between atoms: _202  and  _203
REMARK   78  A    between atoms: _206  and  _208
REMARK   79  A    between atoms: _208  and  _209
REMARK   80  A    between atoms: _208  and  _211
REMARK   81  A    between atoms: _211  and  _212
REMARK   82  A    between atoms: _212  and  _213
REMARK   83  A    between atoms: _213  and  _214
REMARK   84  A    between atoms: _223  and  _225
REMARK   85  A    between atoms: _225  and  _226
REMARK   86  A    between atoms: _225  and  _228
REMARK   87  A    between atoms: _230  and  _232
REMARK   88  A    between atoms: _232  and  _233
REMARK   89  A    between atoms: _232  and  _235
REMARK   90  A    between atoms: _235  and  _236
REMARK   91  A    between atoms: _239  and  _241
REMARK   92  A    between atoms: _241  and  _242
REMARK   93  A    between atoms: _241  and  _244
REMARK   94  A    between atoms: _244  and  _245
REMARK   95  A    between atoms: _247  and  _249
REMARK   96  A    between atoms: _249  and  _250
REMARK   97  A    between atoms: _249  and  _252
REMARK   98  A    between atoms: _252  and  _253
REMARK   99  A    between atoms: _256  and  _258
REMARK  100  A    between atoms: _258  and  _259
REMARK  101  A    between atoms: _258  and  _261
REMARK  102  A    between atoms: _261  and  _262
REMARK  103  A    between atoms: _267  and  _268
REMARK  104  A    between atoms: _271  and  _272
REMARK  105  A    between atoms: _277  and  _279
REMARK  106  A    between atoms: _279  and  _280
REMARK  107  A    between atoms: _279  and  _282
REMARK  108  A    between atoms: _282  and  _283
REMARK  109  A    between atoms: _286  and  _288
REMARK  110  A    between atoms: _288  and  _289
REMARK  111  A    between atoms: _288  and  _291
REMARK  112  A    between atoms: _291  and  _292
REMARK  113  A    between atoms: _297  and  _299
REMARK  114  A    between atoms: _299  and  _300
REMARK  115  A    between atoms: _302  and  _304
REMARK  116  A    between atoms: _304  and  _305
REMARK  117  A    between atoms: _304  and  _307
REMARK  118  A    between atoms: _307  and  _308
REMARK  119  A    between atoms: _313  and  _315
REMARK  120  A    between atoms: _315  and  _316
REMARK  121  A    between atoms: _318  and  _320
REMARK  122  A    between atoms: _320  and  _321
REMARK  123  A    between atoms: _320  and  _323
REMARK  124  A    between atoms: _323  and  _324
REMARK                            x       y       z     vdW  Elec       q    Type
REMARK                         _______ _______ _______ _____ _____    ______ ____
ROOT
ATOM      1  CA  GLU A   1      16.993   6.503  15.380  0.00  0.00    +0.134 C 
ENDROOT
BRANCH   1   2
ATOM      2  N   GLU A   1      17.932   5.783  14.518  0.00  0.00    -0.239 NA
ATOM      3  H   GLU A   1      18.870   6.195  14.338  0.00  0.00    +0.142 HD
ENDBRANCH   1   2
BRANCH   1   4
ATOM      4  C   GLU A   1      15.688   6.825  14.645  0.00  0.00    +0.224 C 
ATOM      5  O   GLU A   1      14.599   6.670  15.203  0.00  0.00    -0.287 OA
ENDBRANCH   1   4
BRANCH   1   6
ATOM      6  CB  GLU A   1      17.643   7.788  15.915  0.00  0.00    +0.037 C 
BRANCH   6   7
ATOM      7  CG  GLU A   1      16.699   8.750  16.659  0.00  0.00    +0.116 C 
BRANCH   7   8
ATOM      8  CD  GLU A   1      16.103   8.173  17.939  0.00  0.00    +0.365 C 
ATOM      9  OE2 GLU A   1      15.142   8.777  18.462  0.00  0.00    -0.246 OA
ATOM     10  OE1 GLU A   1      16.595   7.136  18.440  0.00  0.00    -0.246 OA
ENDBRANCH   7   8
ENDBRANCH   6   7
ENDBRANCH   1   6
TORSDOF 5
REMARK  Name = ../refined-set-2016/2gss/2gss_pocket.pdb
REMARK  124 active torsions:
REMARK  status: ('A' for Active; 'I' for Inactive)
REMARK    1  A    between atoms: _1  and  _3
REMARK    2  A    between atoms: _3  and  _4
REMARK    3  A    between atoms: _3  and  _6
REMARK    4  A    between atoms: _6  and  _7
REMARK    5  A    between atoms: _12  and  _13
REMARK    6  A    between atoms: _15  and  _17
REMARK    7  A    between atoms: _17  and  _18
REMARK    8  A    between atoms: _17  and  _20
REMARK    9  A    between atoms: _20  and  _21
REMARK   10  A    between atoms: _28  and  _29
REMARK   11  A    between atoms: _34  and  _36
REMARK   12  A    between atoms: _36  and  _37
REMARK   13  A    between atoms: _36  and  _39
REMARK   14  A    between atoms: _42  and  _44
REMARK   15  A    between atoms: _44  and  _45
REMARK   16  A    between atoms: _44  and  _47
REMARK   17  A    between atoms: _47  and  _48
REMARK   18  A    between atoms: _48  and  _49
REMARK   19  A    between atoms: _49  and  _50
REMARK   20  A    between atoms: _59  and  _61
REMARK   21  A    between atoms: _61  and  _62
REMARK   22  A    between atoms: _64  and  _66
REMARK   23  A    between atoms: _66  and  _67
REMARK   24  A    between atoms: _66  and  _69
REMARK   25  A    between atoms: _69  and  _70
REMARK   26  A    between atoms: _70  and  _71
REMARK   27  A    between atoms: _71  and  _72
REMARK   28  A    between atoms: _81  and  _83
REMARK   29  A    between atoms: _83  and  _84
REMARK   30  A    between atoms: _83  and  _86
REMARK   31  A    between atoms: _88  and  _90
REMARK   32  A    between atoms: _90  and  _91
REMARK   33  A    between atoms: _90  and  _93
REMARK   34  A    between atoms: _96  and  _98
REMARK   35  A    between atoms: _98  and  _99
REMARK   36  A    between atoms: _98  and  _101
REMARK   37  A    between atoms: _101  and  _102
REMARK   38  A    between atoms: _105  and  _107
REMARK   39  A    between atoms: _107  and  _108
REMARK   40  A    between atoms: _107  and  _110
REMARK   41  A    between atoms: _113  and  _115
REMARK   42  A    between atoms: _115  and  _116
REMARK   43  A    between atoms: _115  and  _118
REMARK   44  A    between atoms: _118  and  _119
REMARK   45  A    between atoms: _119  and  _120
REMARK   46  A    between atoms: _123  and  _125
REMARK   47  A    between atoms: _125  and  _126
REMARK   48  A    between atoms: _125  and  _128
REMARK   49  A    between atoms: _128  and  _129
REMARK   50  A    between atoms: _132  and  _134
REMARK   51  A    between atoms: _134  and  _135
REMARK   52  A    between atoms: _134  and  _137
REMARK   53  A    between atoms: _137  and  _138
REMARK   54  A    between atoms: _148  and  _150
REMARK   55  A    between atoms: _150  and  _151
REMARK   56  A    between atoms: _150  and  _153
REMARK   57  A    between atoms: _153  and  _154
REMARK   58  A    between atoms: _154  and  _155
REMARK   59  A    between atoms: _160  and  _162
REMARK   60  A    between atoms: _162  and  _163
REMARK   61  A    between atoms: _162  and  _165
REMARK   62  A    between atoms: _165  and  _166
REMARK   63  A    between atoms: _166  and  _167
REMARK   64  A    between atoms: _172  and  _174
REMARK   65  A    between atoms: _174  and  _175
REMARK   66  A    between atoms: _174  and  _177
REMARK   67  A    between atoms: _177  and  _178
REMARK   68  A    between atoms: _182  and  _183
REMARK   69  A    between atoms: _188  and  _190
REMARK   70  A    between atoms: _190  and  _191
REMARK   71  A    between atoms: _190  and  _193
REMARK   72  A    between atoms: _193  and  _194
REMARK   73  A    between atoms: _196  and  _198
REMARK   74  A    between atoms: _198  and  _199
REMARK   75  A    between atoms: _198  and  _201
REMARK   76  A    between atoms: _201  and  _202
REMARK   77  A    between atoms: _202  and  _203
REMARK   78  A    between atoms: _206  and  _208
REMARK   79  A    between atoms: _208  and  _209
REMARK   80  A    between atoms: _208  and  _211
REMARK   81  A    between atoms: _211  and  _212
REMARK   82  A    between atoms: _212  and  _213
REMARK   83  A    between atoms: _213  and  _214
REMARK   84  A    between atoms: _223  and  _225
REMARK   85  A    between atoms: _225  and  _226
REMARK   86  A    between atoms: _225  and  _228
REMARK   87  A    between atoms: _230  and  _232
REMARK   88  A    between atoms: _232  and  _233
REMARK   89  A    between atoms: _232  and  _235
REMARK   90  A    between atoms: _235  and  _236
REMARK   91  A    between atoms: _239  and  _241
REMARK   92  A    between atoms: _241  and  _242
REMARK   93  A    between atoms: _241  and  _244
REMARK   94  A    between atoms: _244  and  _245
REMARK   95  A    between atoms: _247  and  _249
REMARK   96  A    between atoms: _249  and  _250
REMARK   97  A    between atoms: _249  and  _252
REMARK   98  A    between atoms: _252  and  _253
REMARK   99  A    between atoms: _256  and  _258
REMARK  100  A    between atoms: _258  and  _259
REMARK  101  A    between atoms: _258  and  _261
REMARK  102  A    between atoms: _261  and  _262
REMARK  103  A    between atoms: _267  and  _268
REMARK  104  A    between atoms: _271  and  _272
REMARK  105  A    between atoms: _277  and  _279
REMARK  106  A    between atoms: _279  and  _280
REMARK  107  A    between atoms: _279  and  _282
REMARK  108  A    between atoms: _282  and  _283
REMARK  109  A    between atoms: _286  and  _288
REMARK  110  A    between atoms: _288  and  _289
REMARK  111  A    between atoms: _288  and  _291
REMARK  112  A    between atoms: _291  and  _292
REMARK  113  A    between atoms: _297  and  _299
REMARK  114  A    between atoms: _299  and  _300
REMARK  115  A    between atoms: _302  and  _304
REMARK  116  A    between atoms: _304  and  _305
REMARK  117  A    between atoms: _304  and  _307
REMARK  118  A    between atoms: _307  and  _308
REMARK  119  A    between atoms: _313  and  _315
REMARK  120  A    between atoms: _315  and  _316
REMARK  121  A    between atoms: _318  and  _320
REMARK  122  A    between atoms: _320  and  _321
REMARK  123  A    between atoms: _320  and  _323
REMARK  124  A    between atoms: _323  and  _324
REMARK                            x       y       z     vdW  Elec       q    Type
REMARK                         _______ _______ _______ _____ _____    ______ ____
ROOT
ATOM      1  CA  ARG A   1      13.256   3.386  15.670  0.00  0.00    +0.145 C 
ENDROOT
BRANCH   1   2
ATOM      2  C   ARG A   1      12.019   4.190  16.073  0.00  0.00    +0.238 C 
ATOM      3  O   ARG A   1      11.078   3.643  16.648  0.00  0.00    -0.274 OA
ATOM      4  N   CYS A   2      12.016   5.481  15.755  0.00  0.00    -0.298 N 
ATOM      5  H   CYS A   2      12.837   5.886  15.261  0.00  0.00    +0.150 HD
BRANCH   4   6
ATOM      6  CA  CYS A   2      10.885   6.339  16.085  0.00  0.00    +0.149 C 
BRANCH   6   7
ATOM      7  CB  CYS A   2      11.181   7.796  15.736  0.00  0.00    +0.096 C 
ATOM      8  SG  CYS A   2      12.325   8.618  16.879  0.00  0.00    -0.080 S 
ENDBRANCH   6   7
BRANCH   6   9
ATOM      9  C   CYS A   2       9.613   5.858  15.390  0.00  0.00    +0.228 C 
ATOM     10  O   CYS A   2       8.540   5.844  15.989  0.00  0.00    -0.286 OA
ENDBRANCH   6   9
ENDBRANCH   4   6
ENDBRANCH   1   2
BRANCH   1  11
ATOM     11  N   ARG A   1      13.699   3.782  14.330  0.00  0.00    -0.238 NA
ATOM     12  H   ARG A   1      14.642   4.202  14.202  0.00  0.00    +0.142 HD
ENDBRANCH   1  11
BRANCH   1  13
ATOM     13  CB  ARG A   1      14.368   3.578  16.715  0.00  0.00    +0.030 C 
BRANCH  13  14
ATOM     14  CG  ARG A   1      13.991   3.041  18.106  0.00  0.00    +0.045 C 
BRANCH  14  15
ATOM     15  CD  ARG A   1      15.115   3.181  19.124  0.00  0.00    +0.174 C 
BRANCH  15  16
ATOM     16  NE  ARG A   1      16.271   2.359  18.780  0.00  0.00    -0.265 N 
ATOM     17  CZ  ARG A   1      16.382   1.054  19.030  0.00  0.00    +0.342 C 
ATOM     18  NH2 ARG A   1      15.406   0.392  19.641  0.00  0.00    -0.292 N 
ATOM     19 HH21 ARG A   1      14.541   0.891  19.931  0.00  0.00    +0.255 HD
ATOM     20 HH22 ARG A   1      15.507  -0.626  19.829  0.00  0.00    +0.255 HD
ATOM     21  NH1 ARG A   1      17.466   0.396  18.626  0.00  0.00    -0.292 N 
ATOM     22 HH11 ARG A   1      17.558  -0.622  18.818  0.00  0.00    +0.255 HD
ATOM     23 HH12 ARG A   1      18.221   0.900  18.118  0.00  0.00    +0.255 HD
ATOM     24  HE  ARG A   1      17.069   2.827  18.304  0.00  0.00    +0.259 HD
ENDBRANCH  15  16
ENDBRANCH  14  15
ENDBRANCH  13  14
ENDBRANCH   1  13
TORSDOF 9
REMARK  Name = ../refined-set-2016/2gss/2gss_pocket.pdb
REMARK  124 active torsions:
REMARK  status: ('A' for Active; 'I' for Inactive)
REMARK    1  A    between atoms: _1  and  _3
REMARK    2  A    between atoms: _3  and  _4
REMARK    3  A    between atoms: _3  and  _6
REMARK    4  A    between atoms: _6  and  _7
REMARK    5  A    between atoms: _12  and  _13
REMARK    6  A    between atoms: _15  and  _17
REMARK    7  A    between atoms: _17  and  _18
REMARK    8  A    between atoms: _17  and  _20
REMARK    9  A    between atoms: _20  and  _21
REMARK   10  A    between atoms: _28  and  _29
REMARK   11  A    between atoms: _34  and  _36
REMARK   12  A    between atoms: _36  and  _37
REMARK   13  A    between atoms: _36  and  _39
REMARK   14  A    between atoms: _42  and  _44
REMARK   15  A    between atoms: _44  and  _45
REMARK   16  A    between atoms: _44  and  _47
REMARK   17  A    between atoms: _47  and  _48
REMARK   18  A    between atoms: _48  and  _49
REMARK   19  A    between atoms: _49  and  _50
REMARK   20  A    between atoms: _59  and  _61
REMARK   21  A    between atoms: _61  and  _62
REMARK   22  A    between atoms: _64  and  _66
REMARK   23  A    between atoms: _66  and  _67
REMARK   24  A    between atoms: _66  and  _69
REMARK   25  A    between atoms: _69  and  _70
REMARK   26  A    between atoms: _70  and  _71
REMARK   27  A    between atoms: _71  and  _72
REMARK   28  A    between atoms: _81  and  _83
REMARK   29  A    between atoms: _83  and  _84
REMARK   30  A    between atoms: _83  and  _86
REMARK   31  A    between atoms: _88  and  _90
REMARK   32  A    between atoms: _90  and  _91
REMARK   33  A    between atoms: _90  and  _93
REMARK   34  A    between atoms: _96  and  _98
REMARK   35  A    between atoms: _98  and  _99
REMARK   36  A    between atoms: _98  and  _101
REMARK   37  A    between atoms: _101  and  _102
REMARK   38  A    between atoms: _105  and  _107
REMARK   39  A    between atoms: _107  and  _108
REMARK   40  A    between atoms: _107  and  _110
REMARK   41  A    between atoms: _113  and  _115
REMARK   42  A    between atoms: _115  and  _116
REMARK   43  A    between atoms: _115  and  _118
REMARK   44  A    between atoms: _118  and  _119
REMARK   45  A    between atoms: _119  and  _120
REMARK   46  A    between atoms: _123  and  _125
REMARK   47  A    between atoms: _125  and  _126
REMARK   48  A    between atoms: _125  and  _128
REMARK   49  A    between atoms: _128  and  _129
REMARK   50  A    between atoms: _132  and  _134
REMARK   51  A    between atoms: _134  and  _135
REMARK   52  A    between atoms: _134  and  _137
REMARK   53  A    between atoms: _137  and  _138
REMARK   54  A    between atoms: _148  and  _150
REMARK   55  A    between atoms: _150  and  _151
REMARK   56  A    between atoms: _150  and  _153
REMARK   57  A    between atoms: _153  and  _154
REMARK   58  A    between atoms: _154  and  _155
REMARK   59  A    between atoms: _160  and  _162
REMARK   60  A    between atoms: _162  and  _163
REMARK   61  A    between atoms: _162  and  _165
REMARK   62  A    between atoms: _165  and  _166
REMARK   63  A    between atoms: _166  and  _167
REMARK   64  A    between atoms: _172  and  _174
REMARK   65  A    between atoms: _174  and  _175
REMARK   66  A    between atoms: _174  and  _177
REMARK   67  A    between atoms: _177  and  _178
REMARK   68  A    between atoms: _182  and  _183
REMARK   69  A    between atoms: _188  and  _190
REMARK   70  A    between atoms: _190  and  _191
REMARK   71  A    between atoms: _190  and  _193
REMARK   72  A    between atoms: _193  and  _194
REMARK   73  A    between atoms: _196  and  _198
REMARK   74  A    between atoms: _198  and  _199
REMARK   75  A    between atoms: _198  and  _201
REMARK   76  A    between atoms: _201  and  _202
REMARK   77  A    between atoms: _202  and  _203
REMARK   78  A    between atoms: _206  and  _208
REMARK   79  A    between atoms: _208  and  _209
REMARK   80  A    between atoms: _208  and  _211
REMARK   81  A    between atoms: _211  and  _212
REMARK   82  A    between atoms: _212  and  _213
REMARK   83  A    between atoms: _213  and  _214
REMARK   84  A    between atoms: _223  and  _225
REMARK   85  A    between atoms: _225  and  _226
REMARK   86  A    between atoms: _225  and  _228
REMARK   87  A    between atoms: _230  and  _232
REMARK   88  A    between atoms: _232  and  _233
REMARK   89  A    between atoms: _232  and  _235
REMARK   90  A    between atoms: _235  and  _236
REMARK   91  A    between atoms: _239  and  _241
REMARK   92  A    between atoms: _241  and  _242
REMARK   93  A    between atoms: _241  and  _244
REMARK   94  A    between atoms: _244  and  _245
REMARK   95  A    between atoms: _247  and  _249
REMARK   96  A    between atoms: _249  and  _250
REMARK   97  A    between atoms: _249  and  _252
REMARK   98  A    between atoms: _252  and  _253
REMARK   99  A    between atoms: _256  and  _258
REMARK  100  A    between atoms: _258  and  _259
REMARK  101  A    between atoms: _258  and  _261
REMARK  102  A    between atoms: _261  and  _262
REMARK  103  A    between atoms: _267  and  _268
REMARK  104  A    between atoms: _271  and  _272
REMARK  105  A    between atoms: _277  and  _279
REMARK  106  A    between atoms: _279  and  _280
REMARK  107  A    between atoms: _279  and  _282
REMARK  108  A    between atoms: _282  and  _283
REMARK  109  A    between atoms: _286  and  _288
REMARK  110  A    between atoms: _288  and  _289
REMARK  111  A    between atoms: _288  and  _291
REMARK  112  A    between atoms: _291  and  _292
REMARK  113  A    between atoms: _297  and  _299
REMARK  114  A    between atoms: _299  and  _300
REMARK  115  A    between atoms: _302  and  _304
REMARK  116  A    between atoms: _304  and  _305
REMARK  117  A    between atoms: _304  and  _307
REMARK  118  A    between atoms: _307  and  _308
REMARK  119  A    between atoms: _313  and  _315
REMARK  120  A    between atoms: _315  and  _316
REMARK  121  A    between atoms: _318  and  _320
REMARK  122  A    between atoms: _320  and  _321
REMARK  123  A    between atoms: _320  and  _323
REMARK  124  A    between atoms: _323  and  _324
REMARK                            x       y       z     vdW  Elec       q    Type
REMARK                         _______ _______ _______ _____ _____    ______ ____
ROOT
ATOM      1  C   ILE A   1       6.470   3.483  18.262  0.00  0.00    +0.238 C 
ATOM      2  O   ILE A   1       5.527   3.115  18.974  0.00  0.00    -0.274 OA
ATOM      3  N   SER A   2       6.329   4.352  17.265  0.00  0.00    -0.296 N 
ATOM      4  H   SER A   2       7.162   4.614  16.700  0.00  0.00    +0.150 HD
ENDROOT
BRANCH   1   5
ATOM      5  CA  ILE A   1       7.879   2.917  18.471  0.00  0.00    +0.145 C 
BRANCH   5   6
ATOM      6  N   ILE A   1       8.499   2.613  17.186  0.00  0.00    -0.238 NA
ATOM      7  H   ILE A   1       9.360   3.128  16.913  0.00  0.00    +0.142 HD
ENDBRANCH   5   6
BRANCH   5   8
ATOM      8  CB  ILE A   1       8.776   3.900  19.273  0.00  0.00    +0.025 C 
ATOM      9  CG2 ILE A   1       8.027   4.476  20.468  0.00  0.00    +0.002 C 
BRANCH   8  10
ATOM     10  CG1 ILE A   1      10.059   3.182  19.717  0.00  0.00    +0.002 C 
ATOM     11  CD1 ILE A   1      11.117   4.112  20.258  0.00  0.00    +0.000 C 
ENDBRANCH   8  10
ENDBRANCH   5   8
ENDBRANCH   1   5
BRANCH   3  12
ATOM     12  CA  SER A   2       5.037   4.948  16.943  0.00  0.00    +0.166 C 
BRANCH  12  13
ATOM     13  CB  SER A   2       4.058   3.836  16.571  0.00  0.00    +0.229 C 
ATOM     14  OG  SER A   2       2.940   3.810  17.067  0.00  0.00    -0.286 OA
ENDBRANCH  12  13
BRANCH  12  15
ATOM     15  C   SER A   2       5.178   5.949  15.792  0.00  0.00    +0.165 C 
BRANCH  15  16
ATOM     16  O   SER A   2       3.940   6.588  15.515  0.00  0.00    -0.380 OA
ATOM     17  H   SER A   2       4.060   7.228  14.769  0.00  0.00    +0.211 HD
ENDBRANCH  15  16
ENDBRANCH  12  15
ENDBRANCH   3  12
TORSDOF 8
REMARK  Name = ../refined-set-2016/2gss/2gss_pocket.pdb
REMARK  124 active torsions:
REMARK  status: ('A' for Active; 'I' for Inactive)
REMARK    1  A    between atoms: _1  and  _3
REMARK    2  A    between atoms: _3  and  _4
REMARK    3  A    between atoms: _3  and  _6
REMARK    4  A    between atoms: _6  and  _7
REMARK    5  A    between atoms: _12  and  _13
REMARK    6  A    between atoms: _15  and  _17
REMARK    7  A    between atoms: _17  and  _18
REMARK    8  A    between atoms: _17  and  _20
REMARK    9  A    between atoms: _20  and  _21
REMARK   10  A    between atoms: _28  and  _29
REMARK   11  A    between atoms: _34  and  _36
REMARK   12  A    between atoms: _36  and  _37
REMARK   13  A    between atoms: _36  and  _39
REMARK   14  A    between atoms: _42  and  _44
REMARK   15  A    between atoms: _44  and  _45
REMARK   16  A    between atoms: _44  and  _47
REMARK   17  A    between atoms: _47  and  _48
REMARK   18  A    between atoms: _48  and  _49
REMARK   19  A    between atoms: _49  and  _50
REMARK   20  A    between atoms: _59  and  _61
REMARK   21  A    between atoms: _61  and  _62
REMARK   22  A    between atoms: _64  and  _66
REMARK   23  A    between atoms: _66  and  _67
REMARK   24  A    between atoms: _66  and  _69
REMARK   25  A    between atoms: _69  and  _70
REMARK   26  A    between atoms: _70  and  _71
REMARK   27  A    between atoms: _71  and  _72
REMARK   28  A    between atoms: _81  and  _83
REMARK   29  A    between atoms: _83  and  _84
REMARK   30  A    between atoms: _83  and  _86
REMARK   31  A    between atoms: _88  and  _90
REMARK   32  A    between atoms: _90  and  _91
REMARK   33  A    between atoms: _90  and  _93
REMARK   34  A    between atoms: _96  and  _98
REMARK   35  A    between atoms: _98  and  _99
REMARK   36  A    between atoms: _98  and  _101
REMARK   37  A    between atoms: _101  and  _102
REMARK   38  A    between atoms: _105  and  _107
REMARK   39  A    between atoms: _107  and  _108
REMARK   40  A    between atoms: _107  and  _110
REMARK   41  A    between atoms: _113  and  _115
REMARK   42  A    between atoms: _115  and  _116
REMARK   43  A    between atoms: _115  and  _118
REMARK   44  A    between atoms: _118  and  _119
REMARK   45  A    between atoms: _119  and  _120
REMARK   46  A    between atoms: _123  and  _125
REMARK   47  A    between atoms: _125  and  _126
REMARK   48  A    between atoms: _125  and  _128
REMARK   49  A    between atoms: _128  and  _129
REMARK   50  A    between atoms: _132  and  _134
REMARK   51  A    between atoms: _134  and  _135
REMARK   52  A    between atoms: _134  and  _137
REMARK   53  A    between atoms: _137  and  _138
REMARK   54  A    between atoms: _148  and  _150
REMARK   55  A    between atoms: _150  and  _151
REMARK   56  A    between atoms: _150  and  _153
REMARK   57  A    between atoms: _153  and  _154
REMARK   58  A    between atoms: _154  and  _155
REMARK   59  A    between atoms: _160  and  _162
REMARK   60  A    between atoms: _162  and  _163
REMARK   61  A    between atoms: _162  and  _165
REMARK   62  A    between atoms: _165  and  _166
REMARK   63  A    between atoms: _166  and  _167
REMARK   64  A    between atoms: _172  and  _174
REMARK   65  A    between atoms: _174  and  _175
REMARK   66  A    between atoms: _174  and  _177
REMARK   67  A    between atoms: _177  and  _178
REMARK   68  A    between atoms: _182  and  _183
REMARK   69  A    between atoms: _188  and  _190
REMARK   70  A    between atoms: _190  and  _191
REMARK   71  A    between atoms: _190  and  _193
REMARK   72  A    between atoms: _193  and  _194
REMARK   73  A    between atoms: _196  and  _198
REMARK   74  A    between atoms: _198  and  _199
REMARK   75  A    between atoms: _198  and  _201
REMARK   76  A    between atoms: _201  and  _202
REMARK   77  A    between atoms: _202  and  _203
REMARK   78  A    between atoms: _206  and  _208
REMARK   79  A    between atoms: _208  and  _209
REMARK   80  A    between atoms: _208  and  _211
REMARK   81  A    between atoms: _211  and  _212
REMARK   82  A    between atoms: _212  and  _213
REMARK   83  A    between atoms: _213  and  _214
REMARK   84  A    between atoms: _223  and  _225
REMARK   85  A    between atoms: _225  and  _226
REMARK   86  A    between atoms: _225  and  _228
REMARK   87  A    between atoms: _230  and  _232
REMARK   88  A    between atoms: _232  and  _233
REMARK   89  A    between atoms: _232  and  _235
REMARK   90  A    between atoms: _235  and  _236
REMARK   91  A    between atoms: _239  and  _241
REMARK   92  A    between atoms: _241  and  _242
REMARK   93  A    between atoms: _241  and  _244
REMARK   94  A    between atoms: _244  and  _245
REMARK   95  A    between atoms: _247  and  _249
REMARK   96  A    between atoms: _249  and  _250
REMARK   97  A    between atoms: _249  and  _252
REMARK   98  A    between atoms: _252  and  _253
REMARK   99  A    between atoms: _256  and  _258
REMARK  100  A    between atoms: _258  and  _259
REMARK  101  A    between atoms: _258  and  _261
REMARK  102  A    between atoms: _261  and  _262
REMARK  103  A    between atoms: _267  and  _268
REMARK  104  A    between atoms: _271  and  _272
REMARK  105  A    between atoms: _277  and  _279
REMARK  106  A    between atoms: _279  and  _280
REMARK  107  A    between atoms: _279  and  _282
REMARK  108  A    between atoms: _282  and  _283
REMARK  109  A    between atoms: _286  and  _288
REMARK  110  A    between atoms: _288  and  _289
REMARK  111  A    between atoms: _288  and  _291
REMARK  112  A    between atoms: _291  and  _292
REMARK  113  A    between atoms: _297  and  _299
REMARK  114  A    between atoms: _299  and  _300
REMARK  115  A    between atoms: _302  and  _304
REMARK  116  A    between atoms: _304  and  _305
REMARK  117  A    between atoms: _304  and  _307
REMARK  118  A    between atoms: _307  and  _308
REMARK  119  A    between atoms: _313  and  _315
REMARK  120  A    between atoms: _315  and  _316
REMARK  121  A    between atoms: _318  and  _320
REMARK  122  A    between atoms: _320  and  _321
REMARK  123  A    between atoms: _320  and  _323
REMARK  124  A    between atoms: _323  and  _324
REMARK                            x       y       z     vdW  Elec       q    Type
REMARK                         _______ _______ _______ _____ _____    ______ ____
ROOT
ATOM      1  CA  TYR A   2       2.469   2.218  20.900  0.00  0.00    +0.141 C 
ENDROOT
BRANCH   1   4
ATOM      2  C   ILE A   1       3.032   0.293  19.535  0.00  0.00    +0.238 C 
ATOM      3  O   ILE A   1       2.101  -0.372  20.003  0.00  0.00    -0.274 OA
ATOM      4  N   TYR A   2       3.281   1.550  19.890  0.00  0.00    -0.298 N 
ATOM      5  H   TYR A   2       4.066   2.064  19.441  0.00  0.00    +0.150 HD
BRANCH   2   6
ATOM      6  CA  ILE A   1       3.984  -0.325  18.510  0.00  0.00    +0.145 C 
BRANCH   6   7
ATOM      7  N   ILE A   1       4.203   0.487  17.310  0.00  0.00    -0.238 NA
ATOM      8  H   ILE A   1       5.182   0.688  17.024  0.00  0.00    +0.142 HD
ENDBRANCH   6   7
BRANCH   6   9
ATOM      9  CB  ILE A   1       5.329  -0.632  19.231  0.00  0.00    +0.025 C 
ATOM     10  CG2 ILE A   1       5.084  -1.287  20.590  0.00  0.00    +0.002 C 
BRANCH   9  11
ATOM     11  CG1 ILE A   1       6.223  -1.518  18.361  0.00  0.00    +0.002 C 
ATOM     12  CD1 ILE A   1       5.694  -2.919  18.124  0.00  0.00    +0.000 C 
ENDBRANCH   9  11
ENDBRANCH   6   9
ENDBRANCH   2   6
ENDBRANCH   1   4
BRANCH   1  13
ATOM     13  C   TYR A   2       1.231   2.985  20.482  0.00  0.00    +0.227 C 
ATOM     14  O   TYR A   2       0.357   3.200  21.315  0.00  0.00    -0.286 OA
ENDBRANCH   1  13
BRANCH   1  15
ATOM     15  CB  TYR A   2       3.336   3.132  21.767  0.00  0.00    +0.054 C 
BRANCH  15  16
ATOM     16  CG  TYR A   2       4.346   2.385  22.597  0.00  0.00    -0.020 A 
ATOM     17  CD2 TYR A   2       3.963   1.700  23.746  0.00  0.00    -0.001 A 
ATOM     18  CE2 TYR A   2       4.883   0.972  24.478  0.00  0.00    +0.036 A 
ATOM     19  CZ  TYR A   2       6.204   0.930  24.057  0.00  0.00    +0.134 A 
ATOM     20  CE1 TYR A   2       6.605   1.603  22.926  0.00  0.00    +0.036 A 
ATOM     21  CD1 TYR A   2       5.678   2.328  22.208  0.00  0.00    -0.001 A 
BRANCH  19  22
ATOM     22  OH  TYR A   2       7.124   0.184  24.737  0.00  0.00    -0.506 OA
ATOM     23  HH  TYR A   2       7.483  -0.519  24.140  0.00  0.00    +0.292 HD
ENDBRANCH  19  22
ENDBRANCH  15  16
ENDBRANCH   1  15
TORSDOF 9
REMARK  Name = ../refined-set-2016/2gss/2gss_pocket.pdb
REMARK  124 active torsions:
REMARK  status: ('A' for Active; 'I' for Inactive)
REMARK    1  A    between atoms: _1  and  _3
REMARK    2  A    between atoms: _3  and  _4
REMARK    3  A    between atoms: _3  and  _6
REMARK    4  A    between atoms: _6  and  _7
REMARK    5  A    between atoms: _12  and  _13
REMARK    6  A    between atoms: _15  and  _17
REMARK    7  A    between atoms: _17  and  _18
REMARK    8  A    between atoms: _17  and  _20
REMARK    9  A    between atoms: _20  and  _21
REMARK   10  A    between atoms: _28  and  _29
REMARK   11  A    between atoms: _34  and  _36
REMARK   12  A    between atoms: _36  and  _37
REMARK   13  A    between atoms: _36  and  _39
REMARK   14  A    between atoms: _42  and  _44
REMARK   15  A    between atoms: _44  and  _45
REMARK   16  A    between atoms: _44  and  _47
REMARK   17  A    between atoms: _47  and  _48
REMARK   18  A    between atoms: _48  and  _49
REMARK   19  A    between atoms: _49  and  _50
REMARK   20  A    between atoms: _59  and  _61
REMARK   21  A    between atoms: _61  and  _62
REMARK   22  A    between atoms: _64  and  _66
REMARK   23  A    between atoms: _66  and  _67
REMARK   24  A    between atoms: _66  and  _69
REMARK   25  A    between atoms: _69  and  _70
REMARK   26  A    between atoms: _70  and  _71
REMARK   27  A    between atoms: _71  and  _72
REMARK   28  A    between atoms: _81  and  _83
REMARK   29  A    between atoms: _83  and  _84
REMARK   30  A    between atoms: _83  and  _86
REMARK   31  A    between atoms: _88  and  _90
REMARK   32  A    between atoms: _90  and  _91
REMARK   33  A    between atoms: _90  and  _93
REMARK   34  A    between atoms: _96  and  _98
REMARK   35  A    between atoms: _98  and  _99
REMARK   36  A    between atoms: _98  and  _101
REMARK   37  A    between atoms: _101  and  _102
REMARK   38  A    between atoms: _105  and  _107
REMARK   39  A    between atoms: _107  and  _108
REMARK   40  A    between atoms: _107  and  _110
REMARK   41  A    between atoms: _113  and  _115
REMARK   42  A    between atoms: _115  and  _116
REMARK   43  A    between atoms: _115  and  _118
REMARK   44  A    between atoms: _118  and  _119
REMARK   45  A    between atoms: _119  and  _120
REMARK   46  A    between atoms: _123  and  _125
REMARK   47  A    between atoms: _125  and  _126
REMARK   48  A    between atoms: _125  and  _128
REMARK   49  A    between atoms: _128  and  _129
REMARK   50  A    between atoms: _132  and  _134
REMARK   51  A    between atoms: _134  and  _135
REMARK   52  A    between atoms: _134  and  _137
REMARK   53  A    between atoms: _137  and  _138
REMARK   54  A    between atoms: _148  and  _150
REMARK   55  A    between atoms: _150  and  _151
REMARK   56  A    between atoms: _150  and  _153
REMARK   57  A    between atoms: _153  and  _154
REMARK   58  A    between atoms: _154  and  _155
REMARK   59  A    between atoms: _160  and  _162
REMARK   60  A    between atoms: _162  and  _163
REMARK   61  A    between atoms: _162  and  _165
REMARK   62  A    between atoms: _165  and  _166
REMARK   63  A    between atoms: _166  and  _167
REMARK   64  A    between atoms: _172  and  _174
REMARK   65  A    between atoms: _174  and  _175
REMARK   66  A    between atoms: _174  and  _177
REMARK   67  A    between atoms: _177  and  _178
REMARK   68  A    between atoms: _182  and  _183
REMARK   69  A    between atoms: _188  and  _190
REMARK   70  A    between atoms: _190  and  _191
REMARK   71  A    between atoms: _190  and  _193
REMARK   72  A    between atoms: _193  and  _194
REMARK   73  A    between atoms: _196  and  _198
REMARK   74  A    between atoms: _198  and  _199
REMARK   75  A    between atoms: _198  and  _201
REMARK   76  A    between atoms: _201  and  _202
REMARK   77  A    between atoms: _202  and  _203
REMARK   78  A    between atoms: _206  and  _208
REMARK   79  A    between atoms: _208  and  _209
REMARK   80  A    between atoms: _208  and  _211
REMARK   81  A    between atoms: _211  and  _212
REMARK   82  A    between atoms: _212  and  _213
REMARK   83  A    between atoms: _213  and  _214
REMARK   84  A    between atoms: _223  and  _225
REMARK   85  A    between atoms: _225  and  _226
REMARK   86  A    between atoms: _225  and  _228
REMARK   87  A    between atoms: _230  and  _232
REMARK   88  A    between atoms: _232  and  _233
REMARK   89  A    between atoms: _232  and  _235
REMARK   90  A    between atoms: _235  and  _236
REMARK   91  A    between atoms: _239  and  _241
REMARK   92  A    between atoms: _241  and  _242
REMARK   93  A    between atoms: _241  and  _244
REMARK   94  A    between atoms: _244  and  _245
REMARK   95  A    between atoms: _247  and  _249
REMARK   96  A    between atoms: _249  and  _250
REMARK   97  A    between atoms: _249  and  _252
REMARK   98  A    between atoms: _252  and  _253
REMARK   99  A    between atoms: _256  and  _258
REMARK  100  A    between atoms: _258  and  _259
REMARK  101  A    between atoms: _258  and  _261
REMARK  102  A    between atoms: _261  and  _262
REMARK  103  A    between atoms: _267  and  _268
REMARK  104  A    between atoms: _271  and  _272
REMARK  105  A    between atoms: _277  and  _279
REMARK  106  A    between atoms: _279  and  _280
REMARK  107  A    between atoms: _279  and  _282
REMARK  108  A    between atoms: _282  and  _283
REMARK  109  A    between atoms: _286  and  _288
REMARK  110  A    between atoms: _288  and  _289
REMARK  111  A    between atoms: _288  and  _291
REMARK  112  A    between atoms: _291  and  _292
REMARK  113  A    between atoms: _297  and  _299
REMARK  114  A    between atoms: _299  and  _300
REMARK  115  A    between atoms: _302  and  _304
REMARK  116  A    between atoms: _304  and  _305
REMARK  117  A    between atoms: _304  and  _307
REMARK  118  A    between atoms: _307  and  _308
REMARK  119  A    between atoms: _313  and  _315
REMARK  120  A    between atoms: _315  and  _316
REMARK  121  A    between atoms: _318  and  _320
REMARK  122  A    between atoms: _320  and  _321
REMARK  123  A    between atoms: _320  and  _323
REMARK  124  A    between atoms: _323  and  _324
REMARK                            x       y       z     vdW  Elec       q    Type
REMARK                         _______ _______ _______ _____ _____    ______ ____
ROOT
ATOM      1  CA  ASN A   3       8.263  -3.168  24.552  0.00  0.00    +0.158 C 
ENDROOT
BRANCH   1   2
ATOM      2  C   ASN A   3       7.434  -3.257  25.829  0.00  0.00    +0.241 C 
ATOM      3  O   ASN A   3       7.323  -4.320  26.438  0.00  0.00    -0.273 OA
ATOM      4  N   GLY A   4       6.846  -2.136  26.220  0.00  0.00    -0.295 N 
ATOM      5  H   GLY A   4       6.944  -1.277  25.642  0.00  0.00    +0.150 HD
BRANCH   4   6
ATOM      6  CA  GLY A   4       6.068  -2.091  27.441  0.00  0.00    +0.176 C 
BRANCH   6   7
ATOM      7  C   GLY A   4       4.598  -2.438  27.341  0.00  0.00    +0.243 C 
ATOM      8  O   GLY A   4       3.976  -2.773  28.347  0.00  0.00    -0.273 OA
ATOM      9  N   ASN A   5       4.031  -2.379  26.141  0.00  0.00    -0.297 N 
ATOM     10  H   ASN A   5       4.611  -2.124  25.316  0.00  0.00    +0.150 HD
BRANCH   9  11
ATOM     11  CA  ASN A   5       2.609  -2.665  25.956  0.00  0.00    +0.158 C 
BRANCH  11  12
ATOM     12  C   ASN A   5       2.303  -4.098  25.495  0.00  0.00    +0.241 C 
ATOM     13  N   GLY A   6       3.288  -4.981  25.579  0.00  0.00    -0.296 N 
ATOM     14  H   GLY A   6       4.220  -4.685  25.932  0.00  0.00    +0.150 HD
ATOM     15  O   ASN A   5       1.193  -4.387  25.041  0.00  0.00    -0.273 OA
BRANCH  13  16
ATOM     16  CA  GLY A   6       3.070  -6.359  25.180  0.00  0.00    +0.163 C 
BRANCH  16  17
ATOM     17  C   GLY A   6       3.043  -6.622  23.688  0.00  0.00    +0.229 C 
ATOM     18  O   GLY A   6       2.827  -7.761  23.269  0.00  0.00    -0.286 OA
ENDBRANCH  16  17
ENDBRANCH  13  16
ENDBRANCH  11  12
BRANCH  11  19
ATOM     19  CB  ASN A   5       1.982  -1.656  24.987  0.00  0.00    +0.114 C 
BRANCH  19  20
ATOM     20  CG  ASN A   5       2.464  -1.842  23.569  0.00  0.00    +0.222 C 
ATOM     21  OD1 ASN A   5       3.458  -2.540  23.328  0.00  0.00    -0.275 OA
ATOM     22  ND2 ASN A   5       1.781  -1.216  22.623  0.00  0.00    -0.329 N 
ATOM     23 HD21 ASN A   5       0.952  -0.641  22.874  0.00  0.00    +0.145 HD
ATOM     24 HD22 ASN A   5       2.074  -1.300  21.629  0.00  0.00    +0.145 HD
ENDBRANCH  19  20
ENDBRANCH  11  19
ENDBRANCH   9  11
ENDBRANCH   6   7
ENDBRANCH   4   6
ENDBRANCH   1   2
BRANCH   1  27
ATOM     25  C   ILE A   2      10.314  -4.431  24.207  0.00  0.00    +0.241 C 
ATOM     26  O   ILE A   2      11.035  -3.449  24.412  0.00  0.00    -0.273 OA
ATOM     27  N   ASN A   3       8.991  -4.395  24.280  0.00  0.00    -0.297 N 
ATOM     28  H   ASN A   3       8.456  -5.275  24.138  0.00  0.00    +0.150 HD
BRANCH  25  29
ATOM     29  CA  ILE A   2      10.914  -5.798  23.892  0.00  0.00    +0.148 C 
BRANCH  29  32
ATOM     30  C   PRO A   1      10.408  -6.735  26.075  0.00  0.00    +0.239 C 
ATOM     31  O   PRO A   1      11.051  -5.846  26.641  0.00  0.00    -0.274 OA
ATOM     32  N   ILE A   2      10.307  -6.808  24.754  0.00  0.00    -0.297 N 
ATOM     33  H   ILE A   2       9.786  -7.599  24.325  0.00  0.00    +0.150 HD
BRANCH  30  38
ATOM     34  N   PRO A   1      10.480  -8.029  28.132  0.00  0.00    -0.210 NA
ATOM     35  CD  PRO A   1       9.742  -7.497  29.295  0.00  0.00    +0.089 C 
ATOM     36  CG  PRO A   1       8.686  -6.625  28.640  0.00  0.00    +0.021 C 
ATOM     37  CB  PRO A   1       8.352  -7.389  27.395  0.00  0.00    +0.028 C 
ATOM     38  CA  PRO A   1       9.724  -7.837  26.891  0.00  0.00    +0.149 C 
ENDBRANCH  30  38
ENDBRANCH  29  32
BRANCH  29  39
ATOM     39  CB  ILE A   2      10.681  -6.125  22.391  0.00  0.00    +0.027 C 
ATOM     40  CG2 ILE A   2      11.248  -5.022  21.506  0.00  0.00    +0.002 C 
BRANCH  39  41
ATOM     41  CG1 ILE A   2      11.326  -7.469  22.041  0.00  0.00    +0.002 C 
ATOM     42  CD1 ILE A   2      11.104  -7.919  20.602  0.00  0.00    +0.000 C 
ENDBRANCH  39  41
ENDBRANCH  29  39
ENDBRANCH  25  29
ENDBRANCH   1  27
BRANCH   1  43
ATOM     43  CB  ASN A   3       7.384  -2.827  23.351  0.00  0.00    +0.114 C 
BRANCH  43  44
ATOM     44  CG  ASN A   3       8.185  -2.709  22.067  0.00  0.00    +0.222 C 
ATOM     45  OD1 ASN A   3       9.108  -1.901  21.966  0.00  0.00    -0.275 OA
ATOM     46  ND2 ASN A   3       7.872  -3.554  21.095  0.00  0.00    -0.329 N 
ATOM     47 HD21 ASN A   3       7.084  -4.222  21.220  0.00  0.00    +0.145 HD
ATOM     48 HD22 ASN A   3       8.414  -3.549  20.207  0.00  0.00    +0.145 HD
ENDBRANCH  43  44
ENDBRANCH   1  43
TORSDOF 17
REMARK  Name = ../refined-set-2016/2gss/2gss_pocket.pdb
REMARK  124 active torsions:
REMARK  status: ('A' for Active; 'I' for Inactive)
REMARK    1  A    between atoms: _1  and  _3
REMARK    2  A    between atoms: _3  and  _4
REMARK    3  A    between atoms: _3  and  _6
REMARK    4  A    between atoms: _6  and  _7
REMARK    5  A    between atoms: _12  and  _13
REMARK    6  A    between atoms: _15  and  _17
REMARK    7  A    between atoms: _17  and  _18
REMARK    8  A    between atoms: _17  and  _20
REMARK    9  A    between atoms: _20  and  _21
REMARK   10  A    between atoms: _28  and  _29
REMARK   11  A    between atoms: _34  and  _36
REMARK   12  A    between atoms: _36  and  _37
REMARK   13  A    between atoms: _36  and  _39
REMARK   14  A    between atoms: _42  and  _44
REMARK   15  A    between atoms: _44  and  _45
REMARK   16  A    between atoms: _44  and  _47
REMARK   17  A    between atoms: _47  and  _48
REMARK   18  A    between atoms: _48  and  _49
REMARK   19  A    between atoms: _49  and  _50
REMARK   20  A    between atoms: _59  and  _61
REMARK   21  A    between atoms: _61  and  _62
REMARK   22  A    between atoms: _64  and  _66
REMARK   23  A    between atoms: _66  and  _67
REMARK   24  A    between atoms: _66  and  _69
REMARK   25  A    between atoms: _69  and  _70
REMARK   26  A    between atoms: _70  and  _71
REMARK   27  A    between atoms: _71  and  _72
REMARK   28  A    between atoms: _81  and  _83
REMARK   29  A    between atoms: _83  and  _84
REMARK   30  A    between atoms: _83  and  _86
REMARK   31  A    between atoms: _88  and  _90
REMARK   32  A    between atoms: _90  and  _91
REMARK   33  A    between atoms: _90  and  _93
REMARK   34  A    between atoms: _96  and  _98
REMARK   35  A    between atoms: _98  and  _99
REMARK   36  A    between atoms: _98  and  _101
REMARK   37  A    between atoms: _101  and  _102
REMARK   38  A    between atoms: _105  and  _107
REMARK   39  A    between atoms: _107  and  _108
REMARK   40  A    between atoms: _107  and  _110
REMARK   41  A    between atoms: _113  and  _115
REMARK   42  A    between atoms: _115  and  _116
REMARK   43  A    between atoms: _115  and  _118
REMARK   44  A    between atoms: _118  and  _119
REMARK   45  A    between atoms: _119  and  _120
REMARK   46  A    between atoms: _123  and  _125
REMARK   47  A    between atoms: _125  and  _126
REMARK   48  A    between atoms: _125  and  _128
REMARK   49  A    between atoms: _128  and  _129
REMARK   50  A    between atoms: _132  and  _134
REMARK   51  A    between atoms: _134  and  _135
REMARK   52  A    between atoms: _134  and  _137
REMARK   53  A    between atoms: _137  and  _138
REMARK   54  A    between atoms: _148  and  _150
REMARK   55  A    between atoms: _150  and  _151
REMARK   56  A    between atoms: _150  and  _153
REMARK   57  A    between atoms: _153  and  _154
REMARK   58  A    between atoms: _154  and  _155
REMARK   59  A    between atoms: _160  and  _162
REMARK   60  A    between atoms: _162  and  _163
REMARK   61  A    between atoms: _162  and  _165
REMARK   62  A    between atoms: _165  and  _166
REMARK   63  A    between atoms: _166  and  _167
REMARK   64  A    between atoms: _172  and  _174
REMARK   65  A    between atoms: _174  and  _175
REMARK   66  A    between atoms: _174  and  _177
REMARK   67  A    between atoms: _177  and  _178
REMARK   68  A    between atoms: _182  and  _183
REMARK   69  A    between atoms: _188  and  _190
REMARK   70  A    between atoms: _190  and  _191
REMARK   71  A    between atoms: _190  and  _193
REMARK   72  A    between atoms: _193  and  _194
REMARK   73  A    between atoms: _196  and  _198
REMARK   74  A    between atoms: _198  and  _199
REMARK   75  A    between atoms: _198  and  _201
REMARK   76  A    between atoms: _201  and  _202
REMARK   77  A    between atoms: _202  and  _203
REMARK   78  A    between atoms: _206  and  _208
REMARK   79  A    between atoms: _208  and  _209
REMARK   80  A    between atoms: _208  and  _211
REMARK   81  A    between atoms: _211  and  _212
REMARK   82  A    between atoms: _212  and  _213
REMARK   83  A    between atoms: _213  and  _214
REMARK   84  A    between atoms: _223  and  _225
REMARK   85  A    between atoms: _225  and  _226
REMARK   86  A    between atoms: _225  and  _228
REMARK   87  A    between atoms: _230  and  _232
REMARK   88  A    between atoms: _232  and  _233
REMARK   89  A    between atoms: _232  and  _235
REMARK   90  A    between atoms: _235  and  _236
REMARK   91  A    between atoms: _239  and  _241
REMARK   92  A    between atoms: _241  and  _242
REMARK   93  A    between atoms: _241  and  _244
REMARK   94  A    between atoms: _244  and  _245
REMARK   95  A    between atoms: _247  and  _249
REMARK   96  A    between atoms: _249  and  _250
REMARK   97  A    between atoms: _249  and  _252
REMARK   98  A    between atoms: _252  and  _253
REMARK   99  A    between atoms: _256  and  _258
REMARK  100  A    between atoms: _258  and  _259
REMARK  101  A    between atoms: _258  and  _261
REMARK  102  A    between atoms: _261  and  _262
REMARK  103  A    between atoms: _267  and  _268
REMARK  104  A    between atoms: _271  and  _272
REMARK  105  A    between atoms: _277  and  _279
REMARK  106  A    between atoms: _279  and  _280
REMARK  107  A    between atoms: _279  and  _282
REMARK  108  A    between atoms: _282  and  _283
REMARK  109  A    between atoms: _286  and  _288
REMARK  110  A    between atoms: _288  and  _289
REMARK  111  A    between atoms: _288  and  _291
REMARK  112  A    between atoms: _291  and  _292
REMARK  113  A    between atoms: _297  and  _299
REMARK  114  A    between atoms: _299  and  _300
REMARK  115  A    between atoms: _302  and  _304
REMARK  116  A    between atoms: _304  and  _305
REMARK  117  A    between atoms: _304  and  _307
REMARK  118  A    between atoms: _307  and  _308
REMARK  119  A    between atoms: _313  and  _315
REMARK  120  A    between atoms: _315  and  _316
REMARK  121  A    between atoms: _318  and  _320
REMARK  122  A    between atoms: _320  and  _321
REMARK  123  A    between atoms: _320  and  _323
REMARK  124  A    between atoms: _323  and  _324
REMARK                            x       y       z     vdW  Elec       q    Type
REMARK                         _______ _______ _______ _____ _____    ______ ____
ROOT
ATOM      1  CA  ASP A   1      12.830  15.913  20.082  0.00  0.00    +0.144 C 
ENDROOT
BRANCH   1   2
ATOM      2  N   ASP A   1      14.141  16.416  19.693  0.00  0.00    -0.239 NA
ATOM      3  H   ASP A   1      14.913  16.417  20.390  0.00  0.00    +0.142 HD
ENDBRANCH   1   2
BRANCH   1   4
ATOM      4  C   ASP A   1      11.738  16.964  19.925  0.00  0.00    +0.225 C 
ATOM      5  O   ASP A   1      10.663  16.686  19.381  0.00  0.00    -0.287 OA
ENDBRANCH   1   4
BRANCH   1   6
ATOM      6  CB  ASP A   1      12.854  15.421  21.527  0.00  0.00    +0.139 C 
BRANCH   6   7
ATOM      7  CG  ASP A   1      13.528  14.072  21.677  0.00  0.00    +0.367 C 
ATOM      8  OD2 ASP A   1      13.661  13.627  22.834  0.00  0.00    -0.246 OA
ATOM      9  OD1 ASP A   1      13.891  13.448  20.654  0.00  0.00    -0.246 OA
ENDBRANCH   6   7
ENDBRANCH   1   6
TORSDOF 4
REMARK  Name = ../refined-set-2016/2gss/2gss_pocket.pdb
REMARK  124 active torsions:
REMARK  status: ('A' for Active; 'I' for Inactive)
REMARK    1  A    between atoms: _1  and  _3
REMARK    2  A    between atoms: _3  and  _4
REMARK    3  A    between atoms: _3  and  _6
REMARK    4  A    between atoms: _6  and  _7
REMARK    5  A    between atoms: _12  and  _13
REMARK    6  A    between atoms: _15  and  _17
REMARK    7  A    between atoms: _17  and  _18
REMARK    8  A    between atoms: _17  and  _20
REMARK    9  A    between atoms: _20  and  _21
REMARK   10  A    between atoms: _28  and  _29
REMARK   11  A    between atoms: _34  and  _36
REMARK   12  A    between atoms: _36  and  _37
REMARK   13  A    between atoms: _36  and  _39
REMARK   14  A    between atoms: _42  and  _44
REMARK   15  A    between atoms: _44  and  _45
REMARK   16  A    between atoms: _44  and  _47
REMARK   17  A    between atoms: _47  and  _48
REMARK   18  A    between atoms: _48  and  _49
REMARK   19  A    between atoms: _49  and  _50
REMARK   20  A    between atoms: _59  and  _61
REMARK   21  A    between atoms: _61  and  _62
REMARK   22  A    between atoms: _64  and  _66
REMARK   23  A    between atoms: _66  and  _67
REMARK   24  A    between atoms: _66  and  _69
REMARK   25  A    between atoms: _69  and  _70
REMARK   26  A    between atoms: _70  and  _71
REMARK   27  A    between atoms: _71  and  _72
REMARK   28  A    between atoms: _81  and  _83
REMARK   29  A    between atoms: _83  and  _84
REMARK   30  A    between atoms: _83  and  _86
REMARK   31  A    between atoms: _88  and  _90
REMARK   32  A    between atoms: _90  and  _91
REMARK   33  A    between atoms: _90  and  _93
REMARK   34  A    between atoms: _96  and  _98
REMARK   35  A    between atoms: _98  and  _99
REMARK   36  A    between atoms: _98  and  _101
REMARK   37  A    between atoms: _101  and  _102
REMARK   38  A    between atoms: _105  and  _107
REMARK   39  A    between atoms: _107  and  _108
REMARK   40  A    between atoms: _107  and  _110
REMARK   41  A    between atoms: _113  and  _115
REMARK   42  A    between atoms: _115  and  _116
REMARK   43  A    between atoms: _115  and  _118
REMARK   44  A    between atoms: _118  and  _119
REMARK   45  A    between atoms: _119  and  _120
REMARK   46  A    between atoms: _123  and  _125
REMARK   47  A    between atoms: _125  and  _126
REMARK   48  A    between atoms: _125  and  _128
REMARK   49  A    between atoms: _128  and  _129
REMARK   50  A    between atoms: _132  and  _134
REMARK   51  A    between atoms: _134  and  _135
REMARK   52  A    between atoms: _134  and  _137
REMARK   53  A    between atoms: _137  and  _138
REMARK   54  A    between atoms: _148  and  _150
REMARK   55  A    between atoms: _150  and  _151
REMARK   56  A    between atoms: _150  and  _153
REMARK   57  A    between atoms: _153  and  _154
REMARK   58  A    between atoms: _154  and  _155
REMARK   59  A    between atoms: _160  and  _162
REMARK   60  A    between atoms: _162  and  _163
REMARK   61  A    between atoms: _162  and  _165
REMARK   62  A    between atoms: _165  and  _166
REMARK   63  A    between atoms: _166  and  _167
REMARK   64  A    between atoms: _172  and  _174
REMARK   65  A    between atoms: _174  and  _175
REMARK   66  A    between atoms: _174  and  _177
REMARK   67  A    between atoms: _177  and  _178
REMARK   68  A    between atoms: _182  and  _183
REMARK   69  A    between atoms: _188  and  _190
REMARK   70  A    between atoms: _190  and  _191
REMARK   71  A    between atoms: _190  and  _193
REMARK   72  A    between atoms: _193  and  _194
REMARK   73  A    between atoms: _196  and  _198
REMARK   74  A    between atoms: _198  and  _199
REMARK   75  A    between atoms: _198  and  _201
REMARK   76  A    between atoms: _201  and  _202
REMARK   77  A    between atoms: _202  and  _203
REMARK   78  A    between atoms: _206  and  _208
REMARK   79  A    between atoms: _208  and  _209
REMARK   80  A    between atoms: _208  and  _211
REMARK   81  A    between atoms: _211  and  _212
REMARK   82  A    between atoms: _212  and  _213
REMARK   83  A    between atoms: _213  and  _214
REMARK   84  A    between atoms: _223  and  _225
REMARK   85  A    between atoms: _225  and  _226
REMARK   86  A    between atoms: _225  and  _228
REMARK   87  A    between atoms: _230  and  _232
REMARK   88  A    between atoms: _232  and  _233
REMARK   89  A    between atoms: _232  and  _235
REMARK   90  A    between atoms: _235  and  _236
REMARK   91  A    between atoms: _239  and  _241
REMARK   92  A    between atoms: _241  and  _242
REMARK   93  A    between atoms: _241  and  _244
REMARK   94  A    between atoms: _244  and  _245
REMARK   95  A    between atoms: _247  and  _249
REMARK   96  A    between atoms: _249  and  _250
REMARK   97  A    between atoms: _249  and  _252
REMARK   98  A    between atoms: _252  and  _253
REMARK   99  A    between atoms: _256  and  _258
REMARK  100  A    between atoms: _258  and  _259
REMARK  101  A    between atoms: _258  and  _261
REMARK  102  A    between atoms: _261  and  _262
REMARK  103  A    between atoms: _267  and  _268
REMARK  104  A    between atoms: _271  and  _272
REMARK  105  A    between atoms: _277  and  _279
REMARK  106  A    between atoms: _279  and  _280
REMARK  107  A    between atoms: _279  and  _282
REMARK  108  A    between atoms: _282  and  _283
REMARK  109  A    between atoms: _286  and  _288
REMARK  110  A    between atoms: _288  and  _289
REMARK  111  A    between atoms: _288  and  _291
REMARK  112  A    between atoms: _291  and  _292
REMARK  113  A    between atoms: _297  and  _299
REMARK  114  A    between atoms: _299  and  _300
REMARK  115  A    between atoms: _302  and  _304
REMARK  116  A    between atoms: _304  and  _305
REMARK  117  A    between atoms: _304  and  _307
REMARK  118  A    between atoms: _307  and  _308
REMARK  119  A    between atoms: _313  and  _315
REMARK  120  A    between atoms: _315  and  _316
REMARK  121  A    between atoms: _318  and  _320
REMARK  122  A    between atoms: _320  and  _321
REMARK  123  A    between atoms: _320  and  _323
REMARK  124  A    between atoms: _323  and  _324
REMARK                            x       y       z     vdW  Elec       q    Type
REMARK                         _______ _______ _______ _____ _____    ______ ____
ROOT
ATOM      1  O   HOH     1      11.883  -1.549  21.379  0.00  0.00    +0.000 OA
ENDROOT
TORSDOF 0
REMARK  Name = ../refined-set-2016/2gss/2gss_pocket.pdb
REMARK  124 active torsions:
REMARK  status: ('A' for Active; 'I' for Inactive)
REMARK    1  A    between atoms: _1  and  _3
REMARK    2  A    between atoms: _3  and  _4
REMARK    3  A    between atoms: _3  and  _6
REMARK    4  A    between atoms: _6  and  _7
REMARK    5  A    between atoms: _12  and  _13
REMARK    6  A    between atoms: _15  and  _17
REMARK    7  A    between atoms: _17  and  _18
REMARK    8  A    between atoms: _17  and  _20
REMARK    9  A    between atoms: _20  and  _21
REMARK   10  A    between atoms: _28  and  _29
REMARK   11  A    between atoms: _34  and  _36
REMARK   12  A    between atoms: _36  and  _37
REMARK   13  A    between atoms: _36  and  _39
REMARK   14  A    between atoms: _42  and  _44
REMARK   15  A    between atoms: _44  and  _45
REMARK   16  A    between atoms: _44  and  _47
REMARK   17  A    between atoms: _47  and  _48
REMARK   18  A    between atoms: _48  and  _49
REMARK   19  A    between atoms: _49  and  _50
REMARK   20  A    between atoms: _59  and  _61
REMARK   21  A    between atoms: _61  and  _62
REMARK   22  A    between atoms: _64  and  _66
REMARK   23  A    between atoms: _66  and  _67
REMARK   24  A    between atoms: _66  and  _69
REMARK   25  A    between atoms: _69  and  _70
REMARK   26  A    between atoms: _70  and  _71
REMARK   27  A    between atoms: _71  and  _72
REMARK   28  A    between atoms: _81  and  _83
REMARK   29  A    between atoms: _83  and  _84
REMARK   30  A    between atoms: _83  and  _86
REMARK   31  A    between atoms: _88  and  _90
REMARK   32  A    between atoms: _90  and  _91
REMARK   33  A    between atoms: _90  and  _93
REMARK   34  A    between atoms: _96  and  _98
REMARK   35  A    between atoms: _98  and  _99
REMARK   36  A    between atoms: _98  and  _101
REMARK   37  A    between atoms: _101  and  _102
REMARK   38  A    between atoms: _105  and  _107
REMARK   39  A    between atoms: _107  and  _108
REMARK   40  A    between atoms: _107  and  _110
REMARK   41  A    between atoms: _113  and  _115
REMARK   42  A    between atoms: _115  and  _116
REMARK   43  A    between atoms: _115  and  _118
REMARK   44  A    between atoms: _118  and  _119
REMARK   45  A    between atoms: _119  and  _120
REMARK   46  A    between atoms: _123  and  _125
REMARK   47  A    between atoms: _125  and  _126
REMARK   48  A    between atoms: _125  and  _128
REMARK   49  A    between atoms: _128  and  _129
REMARK   50  A    between atoms: _132  and  _134
REMARK   51  A    between atoms: _134  and  _135
REMARK   52  A    between atoms: _134  and  _137
REMARK   53  A    between atoms: _137  and  _138
REMARK   54  A    between atoms: _148  and  _150
REMARK   55  A    between atoms: _150  and  _151
REMARK   56  A    between atoms: _150  and  _153
REMARK   57  A    between atoms: _153  and  _154
REMARK   58  A    between atoms: _154  and  _155
REMARK   59  A    between atoms: _160  and  _162
REMARK   60  A    between atoms: _162  and  _163
REMARK   61  A    between atoms: _162  and  _165
REMARK   62  A    between atoms: _165  and  _166
REMARK   63  A    between atoms: _166  and  _167
REMARK   64  A    between atoms: _172  and  _174
REMARK   65  A    between atoms: _174  and  _175
REMARK   66  A    between atoms: _174  and  _177
REMARK   67  A    between atoms: _177  and  _178
REMARK   68  A    between atoms: _182  and  _183
REMARK   69  A    between atoms: _188  and  _190
REMARK   70  A    between atoms: _190  and  _191
REMARK   71  A    between atoms: _190  and  _193
REMARK   72  A    between atoms: _193  and  _194
REMARK   73  A    between atoms: _196  and  _198
REMARK   74  A    between atoms: _198  and  _199
REMARK   75  A    between atoms: _198  and  _201
REMARK   76  A    between atoms: _201  and  _202
REMARK   77  A    between atoms: _202  and  _203
REMARK   78  A    between atoms: _206  and  _208
REMARK   79  A    between atoms: _208  and  _209
REMARK   80  A    between atoms: _208  and  _211
REMARK   81  A    between atoms: _211  and  _212
REMARK   82  A    between atoms: _212  and  _213
REMARK   83  A    between atoms: _213  and  _214
REMARK   84  A    between atoms: _223  and  _225
REMARK   85  A    between atoms: _225  and  _226
REMARK   86  A    between atoms: _225  and  _228
REMARK   87  A    between atoms: _230  and  _232
REMARK   88  A    between atoms: _232  and  _233
REMARK   89  A    between atoms: _232  and  _235
REMARK   90  A    between atoms: _235  and  _236
REMARK   91  A    between atoms: _239  and  _241
REMARK   92  A    between atoms: _241  and  _242
REMARK   93  A    between atoms: _241  and  _244
REMARK   94  A    between atoms: _244  and  _245
REMARK   95  A    between atoms: _247  and  _249
REMARK   96  A    between atoms: _249  and  _250
REMARK   97  A    between atoms: _249  and  _252
REMARK   98  A    between atoms: _252  and  _253
REMARK   99  A    between atoms: _256  and  _258
REMARK  100  A    between atoms: _258  and  _259
REMARK  101  A    between atoms: _258  and  _261
REMARK  102  A    between atoms: _261  and  _262
REMARK  103  A    between atoms: _267  and  _268
REMARK  104  A    between atoms: _271  and  _272
REMARK  105  A    between atoms: _277  and  _279
REMARK  106  A    between atoms: _279  and  _280
REMARK  107  A    between atoms: _279  and  _282
REMARK  108  A    between atoms: _282  and  _283
REMARK  109  A    between atoms: _286  and  _288
REMARK  110  A    between atoms: _288  and  _289
REMARK  111  A    between atoms: _288  and  _291
REMARK  112  A    between atoms: _291  and  _292
REMARK  113  A    between atoms: _297  and  _299
REMARK  114  A    between atoms: _299  and  _300
REMARK  115  A    between atoms: _302  and  _304
REMARK  116  A    between atoms: _304  and  _305
REMARK  117  A    between atoms: _304  and  _307
REMARK  118  A    between atoms: _307  and  _308
REMARK  119  A    between atoms: _313  and  _315
REMARK  120  A    between atoms: _315  and  _316
REMARK  121  A    between atoms: _318  and  _320
REMARK  122  A    between atoms: _320  and  _321
REMARK  123  A    between atoms: _320  and  _323
REMARK  124  A    between atoms: _323  and  _324
REMARK                            x       y       z     vdW  Elec       q    Type
REMARK                         _______ _______ _______ _____ _____    ______ ____
ROOT
ATOM      1  O   HOH     1       9.561   0.070  23.864  0.00  0.00    +0.000 OA
ENDROOT
TORSDOF 0
REMARK  Name = ../refined-set-2016/2gss/2gss_pocket.pdb
REMARK  124 active torsions:
REMARK  status: ('A' for Active; 'I' for Inactive)
REMARK    1  A    between atoms: _1  and  _3
REMARK    2  A    between atoms: _3  and  _4
REMARK    3  A    between atoms: _3  and  _6
REMARK    4  A    between atoms: _6  and  _7
REMARK    5  A    between atoms: _12  and  _13
REMARK    6  A    between atoms: _15  and  _17
REMARK    7  A    between atoms: _17  and  _18
REMARK    8  A    between atoms: _17  and  _20
REMARK    9  A    between atoms: _20  and  _21
REMARK   10  A    between atoms: _28  and  _29
REMARK   11  A    between atoms: _34  and  _36
REMARK   12  A    between atoms: _36  and  _37
REMARK   13  A    between atoms: _36  and  _39
REMARK   14  A    between atoms: _42  and  _44
REMARK   15  A    between atoms: _44  and  _45
REMARK   16  A    between atoms: _44  and  _47
REMARK   17  A    between atoms: _47  and  _48
REMARK   18  A    between atoms: _48  and  _49
REMARK   19  A    between atoms: _49  and  _50
REMARK   20  A    between atoms: _59  and  _61
REMARK   21  A    between atoms: _61  and  _62
REMARK   22  A    between atoms: _64  and  _66
REMARK   23  A    between atoms: _66  and  _67
REMARK   24  A    between atoms: _66  and  _69
REMARK   25  A    between atoms: _69  and  _70
REMARK   26  A    between atoms: _70  and  _71
REMARK   27  A    between atoms: _71  and  _72
REMARK   28  A    between atoms: _81  and  _83
REMARK   29  A    between atoms: _83  and  _84
REMARK   30  A    between atoms: _83  and  _86
REMARK   31  A    between atoms: _88  and  _90
REMARK   32  A    between atoms: _90  and  _91
REMARK   33  A    between atoms: _90  and  _93
REMARK   34  A    between atoms: _96  and  _98
REMARK   35  A    between atoms: _98  and  _99
REMARK   36  A    between atoms: _98  and  _101
REMARK   37  A    between atoms: _101  and  _102
REMARK   38  A    between atoms: _105  and  _107
REMARK   39  A    between atoms: _107  and  _108
REMARK   40  A    between atoms: _107  and  _110
REMARK   41  A    between atoms: _113  and  _115
REMARK   42  A    between atoms: _115  and  _116
REMARK   43  A    between atoms: _115  and  _118
REMARK   44  A    between atoms: _118  and  _119
REMARK   45  A    between atoms: _119  and  _120
REMARK   46  A    between atoms: _123  and  _125
REMARK   47  A    between atoms: _125  and  _126
REMARK   48  A    between atoms: _125  and  _128
REMARK   49  A    between atoms: _128  and  _129
REMARK   50  A    between atoms: _132  and  _134
REMARK   51  A    between atoms: _134  and  _135
REMARK   52  A    between atoms: _134  and  _137
REMARK   53  A    between atoms: _137  and  _138
REMARK   54  A    between atoms: _148  and  _150
REMARK   55  A    between atoms: _150  and  _151
REMARK   56  A    between atoms: _150  and  _153
REMARK   57  A    between atoms: _153  and  _154
REMARK   58  A    between atoms: _154  and  _155
REMARK   59  A    between atoms: _160  and  _162
REMARK   60  A    between atoms: _162  and  _163
REMARK   61  A    between atoms: _162  and  _165
REMARK   62  A    between atoms: _165  and  _166
REMARK   63  A    between atoms: _166  and  _167
REMARK   64  A    between atoms: _172  and  _174
REMARK   65  A    between atoms: _174  and  _175
REMARK   66  A    between atoms: _174  and  _177
REMARK   67  A    between atoms: _177  and  _178
REMARK   68  A    between atoms: _182  and  _183
REMARK   69  A    between atoms: _188  and  _190
REMARK   70  A    between atoms: _190  and  _191
REMARK   71  A    between atoms: _190  and  _193
REMARK   72  A    between atoms: _193  and  _194
REMARK   73  A    between atoms: _196  and  _198
REMARK   74  A    between atoms: _198  and  _199
REMARK   75  A    between atoms: _198  and  _201
REMARK   76  A    between atoms: _201  and  _202
REMARK   77  A    between atoms: _202  and  _203
REMARK   78  A    between atoms: _206  and  _208
REMARK   79  A    between atoms: _208  and  _209
REMARK   80  A    between atoms: _208  and  _211
REMARK   81  A    between atoms: _211  and  _212
REMARK   82  A    between atoms: _212  and  _213
REMARK   83  A    between atoms: _213  and  _214
REMARK   84  A    between atoms: _223  and  _225
REMARK   85  A    between atoms: _225  and  _226
REMARK   86  A    between atoms: _225  and  _228
REMARK   87  A    between atoms: _230  and  _232
REMARK   88  A    between atoms: _232  and  _233
REMARK   89  A    between atoms: _232  and  _235
REMARK   90  A    between atoms: _235  and  _236
REMARK   91  A    between atoms: _239  and  _241
REMARK   92  A    between atoms: _241  and  _242
REMARK   93  A    between atoms: _241  and  _244
REMARK   94  A    between atoms: _244  and  _245
REMARK   95  A    between atoms: _247  and  _249
REMARK   96  A    between atoms: _249  and  _250
REMARK   97  A    between atoms: _249  and  _252
REMARK   98  A    between atoms: _252  and  _253
REMARK   99  A    between atoms: _256  and  _258
REMARK  100  A    between atoms: _258  and  _259
REMARK  101  A    between atoms: _258  and  _261
REMARK  102  A    between atoms: _261  and  _262
REMARK  103  A    between atoms: _267  and  _268
REMARK  104  A    between atoms: _271  and  _272
REMARK  105  A    between atoms: _277  and  _279
REMARK  106  A    between atoms: _279  and  _280
REMARK  107  A    between atoms: _279  and  _282
REMARK  108  A    between atoms: _282  and  _283
REMARK  109  A    between atoms: _286  and  _288
REMARK  110  A    between atoms: _288  and  _289
REMARK  111  A    between atoms: _288  and  _291
REMARK  112  A    between atoms: _291  and  _292
REMARK  113  A    between atoms: _297  and  _299
REMARK  114  A    between atoms: _299  and  _300
REMARK  115  A    between atoms: _302  and  _304
REMARK  116  A    between atoms: _304  and  _305
REMARK  117  A    between atoms: _304  and  _307
REMARK  118  A    between atoms: _307  and  _308
REMARK  119  A    between atoms: _313  and  _315
REMARK  120  A    between atoms: _315  and  _316
REMARK  121  A    between atoms: _318  and  _320
REMARK  122  A    between atoms: _320  and  _321
REMARK  123  A    between atoms: _320  and  _323
REMARK  124  A    between atoms: _323  and  _324
REMARK                            x       y       z     vdW  Elec       q    Type
REMARK                         _______ _______ _______ _____ _____    ______ ____
ROOT
ATOM      1  O   HOH     1      10.527   7.645  20.304  0.00  0.00    +0.000 OA
ENDROOT
TORSDOF 0
REMARK  Name = ../refined-set-2016/2gss/2gss_pocket.pdb
REMARK  124 active torsions:
REMARK  status: ('A' for Active; 'I' for Inactive)
REMARK    1  A    between atoms: _1  and  _3
REMARK    2  A    between atoms: _3  and  _4
REMARK    3  A    between atoms: _3  and  _6
REMARK    4  A    between atoms: _6  and  _7
REMARK    5  A    between atoms: _12  and  _13
REMARK    6  A    between atoms: _15  and  _17
REMARK    7  A    between atoms: _17  and  _18
REMARK    8  A    between atoms: _17  and  _20
REMARK    9  A    between atoms: _20  and  _21
REMARK   10  A    between atoms: _28  and  _29
REMARK   11  A    between atoms: _34  and  _36
REMARK   12  A    between atoms: _36  and  _37
REMARK   13  A    between atoms: _36  and  _39
REMARK   14  A    between atoms: _42  and  _44
REMARK   15  A    between atoms: _44  and  _45
REMARK   16  A    between atoms: _44  and  _47
REMARK   17  A    between atoms: _47  and  _48
REMARK   18  A    between atoms: _48  and  _49
REMARK   19  A    between atoms: _49  and  _50
REMARK   20  A    between atoms: _59  and  _61
REMARK   21  A    between atoms: _61  and  _62
REMARK   22  A    between atoms: _64  and  _66
REMARK   23  A    between atoms: _66  and  _67
REMARK   24  A    between atoms: _66  and  _69
REMARK   25  A    between atoms: _69  and  _70
REMARK   26  A    between atoms: _70  and  _71
REMARK   27  A    between atoms: _71  and  _72
REMARK   28  A    between atoms: _81  and  _83
REMARK   29  A    between atoms: _83  and  _84
REMARK   30  A    between atoms: _83  and  _86
REMARK   31  A    between atoms: _88  and  _90
REMARK   32  A    between atoms: _90  and  _91
REMARK   33  A    between atoms: _90  and  _93
REMARK   34  A    between atoms: _96  and  _98
REMARK   35  A    between atoms: _98  and  _99
REMARK   36  A    between atoms: _98  and  _101
REMARK   37  A    between atoms: _101  and  _102
REMARK   38  A    between atoms: _105  and  _107
REMARK   39  A    between atoms: _107  and  _108
REMARK   40  A    between atoms: _107  and  _110
REMARK   41  A    between atoms: _113  and  _115
REMARK   42  A    between atoms: _115  and  _116
REMARK   43  A    between atoms: _115  and  _118
REMARK   44  A    between atoms: _118  and  _119
REMARK   45  A    between atoms: _119  and  _120
REMARK   46  A    between atoms: _123  and  _125
REMARK   47  A    between atoms: _125  and  _126
REMARK   48  A    between atoms: _125  and  _128
REMARK   49  A    between atoms: _128  and  _129
REMARK   50  A    between atoms: _132  and  _134
REMARK   51  A    between atoms: _134  and  _135
REMARK   52  A    between atoms: _134  and  _137
REMARK   53  A    between atoms: _137  and  _138
REMARK   54  A    between atoms: _148  and  _150
REMARK   55  A    between atoms: _150  and  _151
REMARK   56  A    between atoms: _150  and  _153
REMARK   57  A    between atoms: _153  and  _154
REMARK   58  A    between atoms: _154  and  _155
REMARK   59  A    between atoms: _160  and  _162
REMARK   60  A    between atoms: _162  and  _163
REMARK   61  A    between atoms: _162  and  _165
REMARK   62  A    between atoms: _165  and  _166
REMARK   63  A    between atoms: _166  and  _167
REMARK   64  A    between atoms: _172  and  _174
REMARK   65  A    between atoms: _174  and  _175
REMARK   66  A    between atoms: _174  and  _177
REMARK   67  A    between atoms: _177  and  _178
REMARK   68  A    between atoms: _182  and  _183
REMARK   69  A    between atoms: _188  and  _190
REMARK   70  A    between atoms: _190  and  _191
REMARK   71  A    between atoms: _190  and  _193
REMARK   72  A    between atoms: _193  and  _194
REMARK   73  A    between atoms: _196  and  _198
REMARK   74  A    between atoms: _198  and  _199
REMARK   75  A    between atoms: _198  and  _201
REMARK   76  A    between atoms: _201  and  _202
REMARK   77  A    between atoms: _202  and  _203
REMARK   78  A    between atoms: _206  and  _208
REMARK   79  A    between atoms: _208  and  _209
REMARK   80  A    between atoms: _208  and  _211
REMARK   81  A    between atoms: _211  and  _212
REMARK   82  A    between atoms: _212  and  _213
REMARK   83  A    between atoms: _213  and  _214
REMARK   84  A    between atoms: _223  and  _225
REMARK   85  A    between atoms: _225  and  _226
REMARK   86  A    between atoms: _225  and  _228
REMARK   87  A    between atoms: _230  and  _232
REMARK   88  A    between atoms: _232  and  _233
REMARK   89  A    between atoms: _232  and  _235
REMARK   90  A    between atoms: _235  and  _236
REMARK   91  A    between atoms: _239  and  _241
REMARK   92  A    between atoms: _241  and  _242
REMARK   93  A    between atoms: _241  and  _244
REMARK   94  A    between atoms: _244  and  _245
REMARK   95  A    between atoms: _247  and  _249
REMARK   96  A    between atoms: _249  and  _250
REMARK   97  A    between atoms: _249  and  _252
REMARK   98  A    between atoms: _252  and  _253
REMARK   99  A    between atoms: _256  and  _258
REMARK  100  A    between atoms: _258  and  _259
REMARK  101  A    between atoms: _258  and  _261
REMARK  102  A    between atoms: _261  and  _262
REMARK  103  A    between atoms: _267  and  _268
REMARK  104  A    between atoms: _271  and  _272
REMARK  105  A    between atoms: _277  and  _279
REMARK  106  A    between atoms: _279  and  _280
REMARK  107  A    between atoms: _279  and  _282
REMARK  108  A    between atoms: _282  and  _283
REMARK  109  A    between atoms: _286  and  _288
REMARK  110  A    between atoms: _288  and  _289
REMARK  111  A    between atoms: _288  and  _291
REMARK  112  A    between atoms: _291  and  _292
REMARK  113  A    between atoms: _297  and  _299
REMARK  114  A    between atoms: _299  and  _300
REMARK  115  A    between atoms: _302  and  _304
REMARK  116  A    between atoms: _304  and  _305
REMARK  117  A    between atoms: _304  and  _307
REMARK  118  A    between atoms: _307  and  _308
REMARK  119  A    between atoms: _313  and  _315
REMARK  120  A    between atoms: _315  and  _316
REMARK  121  A    between atoms: _318  and  _320
REMARK  122  A    between atoms: _320  and  _321
REMARK  123  A    between atoms: _320  and  _323
REMARK  124  A    between atoms: _323  and  _324
REMARK                            x       y       z     vdW  Elec       q    Type
REMARK                         _______ _______ _______ _____ _____    ______ ____
ROOT
ATOM      1  O   HOH     1      15.626  10.166  21.501  0.00  0.00    +0.000 OA
ENDROOT
TORSDOF 0
REMARK  Name = ../refined-set-2016/2gss/2gss_pocket.pdb
REMARK  124 active torsions:
REMARK  status: ('A' for Active; 'I' for Inactive)
REMARK    1  A    between atoms: _1  and  _3
REMARK    2  A    between atoms: _3  and  _4
REMARK    3  A    between atoms: _3  and  _6
REMARK    4  A    between atoms: _6  and  _7
REMARK    5  A    between atoms: _12  and  _13
REMARK    6  A    between atoms: _15  and  _17
REMARK    7  A    between atoms: _17  and  _18
REMARK    8  A    between atoms: _17  and  _20
REMARK    9  A    between atoms: _20  and  _21
REMARK   10  A    between atoms: _28  and  _29
REMARK   11  A    between atoms: _34  and  _36
REMARK   12  A    between atoms: _36  and  _37
REMARK   13  A    between atoms: _36  and  _39
REMARK   14  A    between atoms: _42  and  _44
REMARK   15  A    between atoms: _44  and  _45
REMARK   16  A    between atoms: _44  and  _47
REMARK   17  A    between atoms: _47  and  _48
REMARK   18  A    between atoms: _48  and  _49
REMARK   19  A    between atoms: _49  and  _50
REMARK   20  A    between atoms: _59  and  _61
REMARK   21  A    between atoms: _61  and  _62
REMARK   22  A    between atoms: _64  and  _66
REMARK   23  A    between atoms: _66  and  _67
REMARK   24  A    between atoms: _66  and  _69
REMARK   25  A    between atoms: _69  and  _70
REMARK   26  A    between atoms: _70  and  _71
REMARK   27  A    between atoms: _71  and  _72
REMARK   28  A    between atoms: _81  and  _83
REMARK   29  A    between atoms: _83  and  _84
REMARK   30  A    between atoms: _83  and  _86
REMARK   31  A    between atoms: _88  and  _90
REMARK   32  A    between atoms: _90  and  _91
REMARK   33  A    between atoms: _90  and  _93
REMARK   34  A    between atoms: _96  and  _98
REMARK   35  A    between atoms: _98  and  _99
REMARK   36  A    between atoms: _98  and  _101
REMARK   37  A    between atoms: _101  and  _102
REMARK   38  A    between atoms: _105  and  _107
REMARK   39  A    between atoms: _107  and  _108
REMARK   40  A    between atoms: _107  and  _110
REMARK   41  A    between atoms: _113  and  _115
REMARK   42  A    between atoms: _115  and  _116
REMARK   43  A    between atoms: _115  and  _118
REMARK   44  A    between atoms: _118  and  _119
REMARK   45  A    between atoms: _119  and  _120
REMARK   46  A    between atoms: _123  and  _125
REMARK   47  A    between atoms: _125  and  _126
REMARK   48  A    between atoms: _125  and  _128
REMARK   49  A    between atoms: _128  and  _129
REMARK   50  A    between atoms: _132  and  _134
REMARK   51  A    between atoms: _134  and  _135
REMARK   52  A    between atoms: _134  and  _137
REMARK   53  A    between atoms: _137  and  _138
REMARK   54  A    between atoms: _148  and  _150
REMARK   55  A    between atoms: _150  and  _151
REMARK   56  A    between atoms: _150  and  _153
REMARK   57  A    between atoms: _153  and  _154
REMARK   58  A    between atoms: _154  and  _155
REMARK   59  A    between atoms: _160  and  _162
REMARK   60  A    between atoms: _162  and  _163
REMARK   61  A    between atoms: _162  and  _165
REMARK   62  A    between atoms: _165  and  _166
REMARK   63  A    between atoms: _166  and  _167
REMARK   64  A    between atoms: _172  and  _174
REMARK   65  A    between atoms: _174  and  _175
REMARK   66  A    between atoms: _174  and  _177
REMARK   67  A    between atoms: _177  and  _178
REMARK   68  A    between atoms: _182  and  _183
REMARK   69  A    between atoms: _188  and  _190
REMARK   70  A    between atoms: _190  and  _191
REMARK   71  A    between atoms: _190  and  _193
REMARK   72  A    between atoms: _193  and  _194
REMARK   73  A    between atoms: _196  and  _198
REMARK   74  A    between atoms: _198  and  _199
REMARK   75  A    between atoms: _198  and  _201
REMARK   76  A    between atoms: _201  and  _202
REMARK   77  A    between atoms: _202  and  _203
REMARK   78  A    between atoms: _206  and  _208
REMARK   79  A    between atoms: _208  and  _209
REMARK   80  A    between atoms: _208  and  _211
REMARK   81  A    between atoms: _211  and  _212
REMARK   82  A    between atoms: _212  and  _213
REMARK   83  A    between atoms: _213  and  _214
REMARK   84  A    between atoms: _223  and  _225
REMARK   85  A    between atoms: _225  and  _226
REMARK   86  A    between atoms: _225  and  _228
REMARK   87  A    between atoms: _230  and  _232
REMARK   88  A    between atoms: _232  and  _233
REMARK   89  A    between atoms: _232  and  _235
REMARK   90  A    between atoms: _235  and  _236
REMARK   91  A    between atoms: _239  and  _241
REMARK   92  A    between atoms: _241  and  _242
REMARK   93  A    between atoms: _241  and  _244
REMARK   94  A    between atoms: _244  and  _245
REMARK   95  A    between atoms: _247  and  _249
REMARK   96  A    between atoms: _249  and  _250
REMARK   97  A    between atoms: _249  and  _252
REMARK   98  A    between atoms: _252  and  _253
REMARK   99  A    between atoms: _256  and  _258
REMARK  100  A    between atoms: _258  and  _259
REMARK  101  A    between atoms: _258  and  _261
REMARK  102  A    between atoms: _261  and  _262
REMARK  103  A    between atoms: _267  and  _268
REMARK  104  A    between atoms: _271  and  _272
REMARK  105  A    between atoms: _277  and  _279
REMARK  106  A    between atoms: _279  and  _280
REMARK  107  A    between atoms: _279  and  _282
REMARK  108  A    between atoms: _282  and  _283
REMARK  109  A    between atoms: _286  and  _288
REMARK  110  A    between atoms: _288  and  _289
REMARK  111  A    between atoms: _288  and  _291
REMARK  112  A    between atoms: _291  and  _292
REMARK  113  A    between atoms: _297  and  _299
REMARK  114  A    between atoms: _299  and  _300
REMARK  115  A    between atoms: _302  and  _304
REMARK  116  A    between atoms: _304  and  _305
REMARK  117  A    between atoms: _304  and  _307
REMARK  118  A    between atoms: _307  and  _308
REMARK  119  A    between atoms: _313  and  _315
REMARK  120  A    between atoms: _315  and  _316
REMARK  121  A    between atoms: _318  and  _320
REMARK  122  A    between atoms: _320  and  _321
REMARK  123  A    between atoms: _320  and  _323
REMARK  124  A    between atoms: _323  and  _324
REMARK                            x       y       z     vdW  Elec       q    Type
REMARK                         _______ _______ _______ _____ _____    ______ ____
ROOT
ATOM      1  O   HOH     1      11.571   2.078  23.575  0.00  0.00    +0.000 OA
ENDROOT
TORSDOF 0
REMARK  Name = ../refined-set-2016/2gss/2gss_pocket.pdb
REMARK  124 active torsions:
REMARK  status: ('A' for Active; 'I' for Inactive)
REMARK    1  A    between atoms: _1  and  _3
REMARK    2  A    between atoms: _3  and  _4
REMARK    3  A    between atoms: _3  and  _6
REMARK    4  A    between atoms: _6  and  _7
REMARK    5  A    between atoms: _12  and  _13
REMARK    6  A    between atoms: _15  and  _17
REMARK    7  A    between atoms: _17  and  _18
REMARK    8  A    between atoms: _17  and  _20
REMARK    9  A    between atoms: _20  and  _21
REMARK   10  A    between atoms: _28  and  _29
REMARK   11  A    between atoms: _34  and  _36
REMARK   12  A    between atoms: _36  and  _37
REMARK   13  A    between atoms: _36  and  _39
REMARK   14  A    between atoms: _42  and  _44
REMARK   15  A    between atoms: _44  and  _45
REMARK   16  A    between atoms: _44  and  _47
REMARK   17  A    between atoms: _47  and  _48
REMARK   18  A    between atoms: _48  and  _49
REMARK   19  A    between atoms: _49  and  _50
REMARK   20  A    between atoms: _59  and  _61
REMARK   21  A    between atoms: _61  and  _62
REMARK   22  A    between atoms: _64  and  _66
REMARK   23  A    between atoms: _66  and  _67
REMARK   24  A    between atoms: _66  and  _69
REMARK   25  A    between atoms: _69  and  _70
REMARK   26  A    between atoms: _70  and  _71
REMARK   27  A    between atoms: _71  and  _72
REMARK   28  A    between atoms: _81  and  _83
REMARK   29  A    between atoms: _83  and  _84
REMARK   30  A    between atoms: _83  and  _86
REMARK   31  A    between atoms: _88  and  _90
REMARK   32  A    between atoms: _90  and  _91
REMARK   33  A    between atoms: _90  and  _93
REMARK   34  A    between atoms: _96  and  _98
REMARK   35  A    between atoms: _98  and  _99
REMARK   36  A    between atoms: _98  and  _101
REMARK   37  A    between atoms: _101  and  _102
REMARK   38  A    between atoms: _105  and  _107
REMARK   39  A    between atoms: _107  and  _108
REMARK   40  A    between atoms: _107  and  _110
REMARK   41  A    between atoms: _113  and  _115
REMARK   42  A    between atoms: _115  and  _116
REMARK   43  A    between atoms: _115  and  _118
REMARK   44  A    between atoms: _118  and  _119
REMARK   45  A    between atoms: _119  and  _120
REMARK   46  A    between atoms: _123  and  _125
REMARK   47  A    between atoms: _125  and  _126
REMARK   48  A    between atoms: _125  and  _128
REMARK   49  A    between atoms: _128  and  _129
REMARK   50  A    between atoms: _132  and  _134
REMARK   51  A    between atoms: _134  and  _135
REMARK   52  A    between atoms: _134  and  _137
REMARK   53  A    between atoms: _137  and  _138
REMARK   54  A    between atoms: _148  and  _150
REMARK   55  A    between atoms: _150  and  _151
REMARK   56  A    between atoms: _150  and  _153
REMARK   57  A    between atoms: _153  and  _154
REMARK   58  A    between atoms: _154  and  _155
REMARK   59  A    between atoms: _160  and  _162
REMARK   60  A    between atoms: _162  and  _163
REMARK   61  A    between atoms: _162  and  _165
REMARK   62  A    between atoms: _165  and  _166
REMARK   63  A    between atoms: _166  and  _167
REMARK   64  A    between atoms: _172  and  _174
REMARK   65  A    between atoms: _174  and  _175
REMARK   66  A    between atoms: _174  and  _177
REMARK   67  A    between atoms: _177  and  _178
REMARK   68  A    between atoms: _182  and  _183
REMARK   69  A    between atoms: _188  and  _190
REMARK   70  A    between atoms: _190  and  _191
REMARK   71  A    between atoms: _190  and  _193
REMARK   72  A    between atoms: _193  and  _194
REMARK   73  A    between atoms: _196  and  _198
REMARK   74  A    between atoms: _198  and  _199
REMARK   75  A    between atoms: _198  and  _201
REMARK   76  A    between atoms: _201  and  _202
REMARK   77  A    between atoms: _202  and  _203
REMARK   78  A    between atoms: _206  and  _208
REMARK   79  A    between atoms: _208  and  _209
REMARK   80  A    between atoms: _208  and  _211
REMARK   81  A    between atoms: _211  and  _212
REMARK   82  A    between atoms: _212  and  _213
REMARK   83  A    between atoms: _213  and  _214
REMARK   84  A    between atoms: _223  and  _225
REMARK   85  A    between atoms: _225  and  _226
REMARK   86  A    between atoms: _225  and  _228
REMARK   87  A    between atoms: _230  and  _232
REMARK   88  A    between atoms: _232  and  _233
REMARK   89  A    between atoms: _232  and  _235
REMARK   90  A    between atoms: _235  and  _236
REMARK   91  A    between atoms: _239  and  _241
REMARK   92  A    between atoms: _241  and  _242
REMARK   93  A    between atoms: _241  and  _244
REMARK   94  A    between atoms: _244  and  _245
REMARK   95  A    between atoms: _247  and  _249
REMARK   96  A    between atoms: _249  and  _250
REMARK   97  A    between atoms: _249  and  _252
REMARK   98  A    between atoms: _252  and  _253
REMARK   99  A    between atoms: _256  and  _258
REMARK  100  A    between atoms: _258  and  _259
REMARK  101  A    between atoms: _258  and  _261
REMARK  102  A    between atoms: _261  and  _262
REMARK  103  A    between atoms: _267  and  _268
REMARK  104  A    between atoms: _271  and  _272
REMARK  105  A    between atoms: _277  and  _279
REMARK  106  A    between atoms: _279  and  _280
REMARK  107  A    between atoms: _279  and  _282
REMARK  108  A    between atoms: _282  and  _283
REMARK  109  A    between atoms: _286  and  _288
REMARK  110  A    between atoms: _288  and  _289
REMARK  111  A    between atoms: _288  and  _291
REMARK  112  A    between atoms: _291  and  _292
REMARK  113  A    between atoms: _297  and  _299
REMARK  114  A    between atoms: _299  and  _300
REMARK  115  A    between atoms: _302  and  _304
REMARK  116  A    between atoms: _304  and  _305
REMARK  117  A    between atoms: _304  and  _307
REMARK  118  A    between atoms: _307  and  _308
REMARK  119  A    between atoms: _313  and  _315
REMARK  120  A    between atoms: _315  and  _316
REMARK  121  A    between atoms: _318  and  _320
REMARK  122  A    between atoms: _320  and  _321
REMARK  123  A    between atoms: _320  and  _323
REMARK  124  A    between atoms: _323  and  _324
REMARK                            x       y       z     vdW  Elec       q    Type
REMARK                         _______ _______ _______ _____ _____    ______ ____
ROOT
ATOM      1  O   HOH     1      12.948   1.181  21.178  0.00  0.00    +0.000 OA
ENDROOT
TORSDOF 0
REMARK  Name = ../refined-set-2016/2gss/2gss_pocket.pdb
REMARK  124 active torsions:
REMARK  status: ('A' for Active; 'I' for Inactive)
REMARK    1  A    between atoms: _1  and  _3
REMARK    2  A    between atoms: _3  and  _4
REMARK    3  A    between atoms: _3  and  _6
REMARK    4  A    between atoms: _6  and  _7
REMARK    5  A    between atoms: _12  and  _13
REMARK    6  A    between atoms: _15  and  _17
REMARK    7  A    between atoms: _17  and  _18
REMARK    8  A    between atoms: _17  and  _20
REMARK    9  A    between atoms: _20  and  _21
REMARK   10  A    between atoms: _28  and  _29
REMARK   11  A    between atoms: _34  and  _36
REMARK   12  A    between atoms: _36  and  _37
REMARK   13  A    between atoms: _36  and  _39
REMARK   14  A    between atoms: _42  and  _44
REMARK   15  A    between atoms: _44  and  _45
REMARK   16  A    between atoms: _44  and  _47
REMARK   17  A    between atoms: _47  and  _48
REMARK   18  A    between atoms: _48  and  _49
REMARK   19  A    between atoms: _49  and  _50
REMARK   20  A    between atoms: _59  and  _61
REMARK   21  A    between atoms: _61  and  _62
REMARK   22  A    between atoms: _64  and  _66
REMARK   23  A    between atoms: _66  and  _67
REMARK   24  A    between atoms: _66  and  _69
REMARK   25  A    between atoms: _69  and  _70
REMARK   26  A    between atoms: _70  and  _71
REMARK   27  A    between atoms: _71  and  _72
REMARK   28  A    between atoms: _81  and  _83
REMARK   29  A    between atoms: _83  and  _84
REMARK   30  A    between atoms: _83  and  _86
REMARK   31  A    between atoms: _88  and  _90
REMARK   32  A    between atoms: _90  and  _91
REMARK   33  A    between atoms: _90  and  _93
REMARK   34  A    between atoms: _96  and  _98
REMARK   35  A    between atoms: _98  and  _99
REMARK   36  A    between atoms: _98  and  _101
REMARK   37  A    between atoms: _101  and  _102
REMARK   38  A    between atoms: _105  and  _107
REMARK   39  A    between atoms: _107  and  _108
REMARK   40  A    between atoms: _107  and  _110
REMARK   41  A    between atoms: _113  and  _115
REMARK   42  A    between atoms: _115  and  _116
REMARK   43  A    between atoms: _115  and  _118
REMARK   44  A    between atoms: _118  and  _119
REMARK   45  A    between atoms: _119  and  _120
REMARK   46  A    between atoms: _123  and  _125
REMARK   47  A    between atoms: _125  and  _126
REMARK   48  A    between atoms: _125  and  _128
REMARK   49  A    between atoms: _128  and  _129
REMARK   50  A    between atoms: _132  and  _134
REMARK   51  A    between atoms: _134  and  _135
REMARK   52  A    between atoms: _134  and  _137
REMARK   53  A    between atoms: _137  and  _138
REMARK   54  A    between atoms: _148  and  _150
REMARK   55  A    between atoms: _150  and  _151
REMARK   56  A    between atoms: _150  and  _153
REMARK   57  A    between atoms: _153  and  _154
REMARK   58  A    between atoms: _154  and  _155
REMARK   59  A    between atoms: _160  and  _162
REMARK   60  A    between atoms: _162  and  _163
REMARK   61  A    between atoms: _162  and  _165
REMARK   62  A    between atoms: _165  and  _166
REMARK   63  A    between atoms: _166  and  _167
REMARK   64  A    between atoms: _172  and  _174
REMARK   65  A    between atoms: _174  and  _175
REMARK   66  A    between atoms: _174  and  _177
REMARK   67  A    between atoms: _177  and  _178
REMARK   68  A    between atoms: _182  and  _183
REMARK   69  A    between atoms: _188  and  _190
REMARK   70  A    between atoms: _190  and  _191
REMARK   71  A    between atoms: _190  and  _193
REMARK   72  A    between atoms: _193  and  _194
REMARK   73  A    between atoms: _196  and  _198
REMARK   74  A    between atoms: _198  and  _199
REMARK   75  A    between atoms: _198  and  _201
REMARK   76  A    between atoms: _201  and  _202
REMARK   77  A    between atoms: _202  and  _203
REMARK   78  A    between atoms: _206  and  _208
REMARK   79  A    between atoms: _208  and  _209
REMARK   80  A    between atoms: _208  and  _211
REMARK   81  A    between atoms: _211  and  _212
REMARK   82  A    between atoms: _212  and  _213
REMARK   83  A    between atoms: _213  and  _214
REMARK   84  A    between atoms: _223  and  _225
REMARK   85  A    between atoms: _225  and  _226
REMARK   86  A    between atoms: _225  and  _228
REMARK   87  A    between atoms: _230  and  _232
REMARK   88  A    between atoms: _232  and  _233
REMARK   89  A    between atoms: _232  and  _235
REMARK   90  A    between atoms: _235  and  _236
REMARK   91  A    between atoms: _239  and  _241
REMARK   92  A    between atoms: _241  and  _242
REMARK   93  A    between atoms: _241  and  _244
REMARK   94  A    between atoms: _244  and  _245
REMARK   95  A    between atoms: _247  and  _249
REMARK   96  A    between atoms: _249  and  _250
REMARK   97  A    between atoms: _249  and  _252
REMARK   98  A    between atoms: _252  and  _253
REMARK   99  A    between atoms: _256  and  _258
REMARK  100  A    between atoms: _258  and  _259
REMARK  101  A    between atoms: _258  and  _261
REMARK  102  A    between atoms: _261  and  _262
REMARK  103  A    between atoms: _267  and  _268
REMARK  104  A    between atoms: _271  and  _272
REMARK  105  A    between atoms: _277  and  _279
REMARK  106  A    between atoms: _279  and  _280
REMARK  107  A    between atoms: _279  and  _282
REMARK  108  A    between atoms: _282  and  _283
REMARK  109  A    between atoms: _286  and  _288
REMARK  110  A    between atoms: _288  and  _289
REMARK  111  A    between atoms: _288  and  _291
REMARK  112  A    between atoms: _291  and  _292
REMARK  113  A    between atoms: _297  and  _299
REMARK  114  A    between atoms: _299  and  _300
REMARK  115  A    between atoms: _302  and  _304
REMARK  116  A    between atoms: _304  and  _305
REMARK  117  A    between atoms: _304  and  _307
REMARK  118  A    between atoms: _307  and  _308
REMARK  119  A    between atoms: _313  and  _315
REMARK  120  A    between atoms: _315  and  _316
REMARK  121  A    between atoms: _318  and  _320
REMARK  122  A    between atoms: _320  and  _321
REMARK  123  A    between atoms: _320  and  _323
REMARK  124  A    between atoms: _323  and  _324
REMARK                            x       y       z     vdW  Elec       q    Type
REMARK                         _______ _______ _______ _____ _____    ______ ____
ROOT
ATOM      1  O   HOH     1       4.993   6.328  22.422  0.00  0.00    +0.000 OA
ENDROOT
TORSDOF 0
REMARK  Name = ../refined-set-2016/2gss/2gss_pocket.pdb
REMARK  124 active torsions:
REMARK  status: ('A' for Active; 'I' for Inactive)
REMARK    1  A    between atoms: _1  and  _3
REMARK    2  A    between atoms: _3  and  _4
REMARK    3  A    between atoms: _3  and  _6
REMARK    4  A    between atoms: _6  and  _7
REMARK    5  A    between atoms: _12  and  _13
REMARK    6  A    between atoms: _15  and  _17
REMARK    7  A    between atoms: _17  and  _18
REMARK    8  A    between atoms: _17  and  _20
REMARK    9  A    between atoms: _20  and  _21
REMARK   10  A    between atoms: _28  and  _29
REMARK   11  A    between atoms: _34  and  _36
REMARK   12  A    between atoms: _36  and  _37
REMARK   13  A    between atoms: _36  and  _39
REMARK   14  A    between atoms: _42  and  _44
REMARK   15  A    between atoms: _44  and  _45
REMARK   16  A    between atoms: _44  and  _47
REMARK   17  A    between atoms: _47  and  _48
REMARK   18  A    between atoms: _48  and  _49
REMARK   19  A    between atoms: _49  and  _50
REMARK   20  A    between atoms: _59  and  _61
REMARK   21  A    between atoms: _61  and  _62
REMARK   22  A    between atoms: _64  and  _66
REMARK   23  A    between atoms: _66  and  _67
REMARK   24  A    between atoms: _66  and  _69
REMARK   25  A    between atoms: _69  and  _70
REMARK   26  A    between atoms: _70  and  _71
REMARK   27  A    between atoms: _71  and  _72
REMARK   28  A    between atoms: _81  and  _83
REMARK   29  A    between atoms: _83  and  _84
REMARK   30  A    between atoms: _83  and  _86
REMARK   31  A    between atoms: _88  and  _90
REMARK   32  A    between atoms: _90  and  _91
REMARK   33  A    between atoms: _90  and  _93
REMARK   34  A    between atoms: _96  and  _98
REMARK   35  A    between atoms: _98  and  _99
REMARK   36  A    between atoms: _98  and  _101
REMARK   37  A    between atoms: _101  and  _102
REMARK   38  A    between atoms: _105  and  _107
REMARK   39  A    between atoms: _107  and  _108
REMARK   40  A    between atoms: _107  and  _110
REMARK   41  A    between atoms: _113  and  _115
REMARK   42  A    between atoms: _115  and  _116
REMARK   43  A    between atoms: _115  and  _118
REMARK   44  A    between atoms: _118  and  _119
REMARK   45  A    between atoms: _119  and  _120
REMARK   46  A    between atoms: _123  and  _125
REMARK   47  A    between atoms: _125  and  _126
REMARK   48  A    between atoms: _125  and  _128
REMARK   49  A    between atoms: _128  and  _129
REMARK   50  A    between atoms: _132  and  _134
REMARK   51  A    between atoms: _134  and  _135
REMARK   52  A    between atoms: _134  and  _137
REMARK   53  A    between atoms: _137  and  _138
REMARK   54  A    between atoms: _148  and  _150
REMARK   55  A    between atoms: _150  and  _151
REMARK   56  A    between atoms: _150  and  _153
REMARK   57  A    between atoms: _153  and  _154
REMARK   58  A    between atoms: _154  and  _155
REMARK   59  A    between atoms: _160  and  _162
REMARK   60  A    between atoms: _162  and  _163
REMARK   61  A    between atoms: _162  and  _165
REMARK   62  A    between atoms: _165  and  _166
REMARK   63  A    between atoms: _166  and  _167
REMARK   64  A    between atoms: _172  and  _174
REMARK   65  A    between atoms: _174  and  _175
REMARK   66  A    between atoms: _174  and  _177
REMARK   67  A    between atoms: _177  and  _178
REMARK   68  A    between atoms: _182  and  _183
REMARK   69  A    between atoms: _188  and  _190
REMARK   70  A    between atoms: _190  and  _191
REMARK   71  A    between atoms: _190  and  _193
REMARK   72  A    between atoms: _193  and  _194
REMARK   73  A    between atoms: _196  and  _198
REMARK   74  A    between atoms: _198  and  _199
REMARK   75  A    between atoms: _198  and  _201
REMARK   76  A    between atoms: _201  and  _202
REMARK   77  A    between atoms: _202  and  _203
REMARK   78  A    between atoms: _206  and  _208
REMARK   79  A    between atoms: _208  and  _209
REMARK   80  A    between atoms: _208  and  _211
REMARK   81  A    between atoms: _211  and  _212
REMARK   82  A    between atoms: _212  and  _213
REMARK   83  A    between atoms: _213  and  _214
REMARK   84  A    between atoms: _223  and  _225
REMARK   85  A    between atoms: _225  and  _226
REMARK   86  A    between atoms: _225  and  _228
REMARK   87  A    between atoms: _230  and  _232
REMARK   88  A    between atoms: _232  and  _233
REMARK   89  A    between atoms: _232  and  _235
REMARK   90  A    between atoms: _235  and  _236
REMARK   91  A    between atoms: _239  and  _241
REMARK   92  A    between atoms: _241  and  _242
REMARK   93  A    between atoms: _241  and  _244
REMARK   94  A    between atoms: _244  and  _245
REMARK   95  A    between atoms: _247  and  _249
REMARK   96  A    between atoms: _249  and  _250
REMARK   97  A    between atoms: _249  and  _252
REMARK   98  A    between atoms: _252  and  _253
REMARK   99  A    between atoms: _256  and  _258
REMARK  100  A    between atoms: _258  and  _259
REMARK  101  A    between atoms: _258  and  _261
REMARK  102  A    between atoms: _261  and  _262
REMARK  103  A    between atoms: _267  and  _268
REMARK  104  A    between atoms: _271  and  _272
REMARK  105  A    between atoms: _277  and  _279
REMARK  106  A    between atoms: _279  and  _280
REMARK  107  A    between atoms: _279  and  _282
REMARK  108  A    between atoms: _282  and  _283
REMARK  109  A    between atoms: _286  and  _288
REMARK  110  A    between atoms: _288  and  _289
REMARK  111  A    between atoms: _288  and  _291
REMARK  112  A    between atoms: _291  and  _292
REMARK  113  A    between atoms: _297  and  _299
REMARK  114  A    between atoms: _299  and  _300
REMARK  115  A    between atoms: _302  and  _304
REMARK  116  A    between atoms: _304  and  _305
REMARK  117  A    between atoms: _304  and  _307
REMARK  118  A    between atoms: _307  and  _308
REMARK  119  A    between atoms: _313  and  _315
REMARK  120  A    between atoms: _315  and  _316
REMARK  121  A    between atoms: _318  and  _320
REMARK  122  A    between atoms: _320  and  _321
REMARK  123  A    between atoms: _320  and  _323
REMARK  124  A    between atoms: _323  and  _324
REMARK                            x       y       z     vdW  Elec       q    Type
REMARK                         _______ _______ _______ _____ _____    ______ ____
ROOT
ATOM      1  O   HOH     1       0.080   0.885  23.683  0.00  0.00    +0.000 OA
ENDROOT
TORSDOF 0
REMARK  Name = ../refined-set-2016/2gss/2gss_pocket.pdb
REMARK  124 active torsions:
REMARK  status: ('A' for Active; 'I' for Inactive)
REMARK    1  A    between atoms: _1  and  _3
REMARK    2  A    between atoms: _3  and  _4
REMARK    3  A    between atoms: _3  and  _6
REMARK    4  A    between atoms: _6  and  _7
REMARK    5  A    between atoms: _12  and  _13
REMARK    6  A    between atoms: _15  and  _17
REMARK    7  A    between atoms: _17  and  _18
REMARK    8  A    between atoms: _17  and  _20
REMARK    9  A    between atoms: _20  and  _21
REMARK   10  A    between atoms: _28  and  _29
REMARK   11  A    between atoms: _34  and  _36
REMARK   12  A    between atoms: _36  and  _37
REMARK   13  A    between atoms: _36  and  _39
REMARK   14  A    between atoms: _42  and  _44
REMARK   15  A    between atoms: _44  and  _45
REMARK   16  A    between atoms: _44  and  _47
REMARK   17  A    between atoms: _47  and  _48
REMARK   18  A    between atoms: _48  and  _49
REMARK   19  A    between atoms: _49  and  _50
REMARK   20  A    between atoms: _59  and  _61
REMARK   21  A    between atoms: _61  and  _62
REMARK   22  A    between atoms: _64  and  _66
REMARK   23  A    between atoms: _66  and  _67
REMARK   24  A    between atoms: _66  and  _69
REMARK   25  A    between atoms: _69  and  _70
REMARK   26  A    between atoms: _70  and  _71
REMARK   27  A    between atoms: _71  and  _72
REMARK   28  A    between atoms: _81  and  _83
REMARK   29  A    between atoms: _83  and  _84
REMARK   30  A    between atoms: _83  and  _86
REMARK   31  A    between atoms: _88  and  _90
REMARK   32  A    between atoms: _90  and  _91
REMARK   33  A    between atoms: _90  and  _93
REMARK   34  A    between atoms: _96  and  _98
REMARK   35  A    between atoms: _98  and  _99
REMARK   36  A    between atoms: _98  and  _101
REMARK   37  A    between atoms: _101  and  _102
REMARK   38  A    between atoms: _105  and  _107
REMARK   39  A    between atoms: _107  and  _108
REMARK   40  A    between atoms: _107  and  _110
REMARK   41  A    between atoms: _113  and  _115
REMARK   42  A    between atoms: _115  and  _116
REMARK   43  A    between atoms: _115  and  _118
REMARK   44  A    between atoms: _118  and  _119
REMARK   45  A    between atoms: _119  and  _120
REMARK   46  A    between atoms: _123  and  _125
REMARK   47  A    between atoms: _125  and  _126
REMARK   48  A    between atoms: _125  and  _128
REMARK   49  A    between atoms: _128  and  _129
REMARK   50  A    between atoms: _132  and  _134
REMARK   51  A    between atoms: _134  and  _135
REMARK   52  A    between atoms: _134  and  _137
REMARK   53  A    between atoms: _137  and  _138
REMARK   54  A    between atoms: _148  and  _150
REMARK   55  A    between atoms: _150  and  _151
REMARK   56  A    between atoms: _150  and  _153
REMARK   57  A    between atoms: _153  and  _154
REMARK   58  A    between atoms: _154  and  _155
REMARK   59  A    between atoms: _160  and  _162
REMARK   60  A    between atoms: _162  and  _163
REMARK   61  A    between atoms: _162  and  _165
REMARK   62  A    between atoms: _165  and  _166
REMARK   63  A    between atoms: _166  and  _167
REMARK   64  A    between atoms: _172  and  _174
REMARK   65  A    between atoms: _174  and  _175
REMARK   66  A    between atoms: _174  and  _177
REMARK   67  A    between atoms: _177  and  _178
REMARK   68  A    between atoms: _182  and  _183
REMARK   69  A    between atoms: _188  and  _190
REMARK   70  A    between atoms: _190  and  _191
REMARK   71  A    between atoms: _190  and  _193
REMARK   72  A    between atoms: _193  and  _194
REMARK   73  A    between atoms: _196  and  _198
REMARK   74  A    between atoms: _198  and  _199
REMARK   75  A    between atoms: _198  and  _201
REMARK   76  A    between atoms: _201  and  _202
REMARK   77  A    between atoms: _202  and  _203
REMARK   78  A    between atoms: _206  and  _208
REMARK   79  A    between atoms: _208  and  _209
REMARK   80  A    between atoms: _208  and  _211
REMARK   81  A    between atoms: _211  and  _212
REMARK   82  A    between atoms: _212  and  _213
REMARK   83  A    between atoms: _213  and  _214
REMARK   84  A    between atoms: _223  and  _225
REMARK   85  A    between atoms: _225  and  _226
REMARK   86  A    between atoms: _225  and  _228
REMARK   87  A    between atoms: _230  and  _232
REMARK   88  A    between atoms: _232  and  _233
REMARK   89  A    between atoms: _232  and  _235
REMARK   90  A    between atoms: _235  and  _236
REMARK   91  A    between atoms: _239  and  _241
REMARK   92  A    between atoms: _241  and  _242
REMARK   93  A    between atoms: _241  and  _244
REMARK   94  A    between atoms: _244  and  _245
REMARK   95  A    between atoms: _247  and  _249
REMARK   96  A    between atoms: _249  and  _250
REMARK   97  A    between atoms: _249  and  _252
REMARK   98  A    between atoms: _252  and  _253
REMARK   99  A    between atoms: _256  and  _258
REMARK  100  A    between atoms: _258  and  _259
REMARK  101  A    between atoms: _258  and  _261
REMARK  102  A    between atoms: _261  and  _262
REMARK  103  A    between atoms: _267  and  _268
REMARK  104  A    between atoms: _271  and  _272
REMARK  105  A    between atoms: _277  and  _279
REMARK  106  A    between atoms: _279  and  _280
REMARK  107  A    between atoms: _279  and  _282
REMARK  108  A    between atoms: _282  and  _283
REMARK  109  A    between atoms: _286  and  _288
REMARK  110  A    between atoms: _288  and  _289
REMARK  111  A    between atoms: _288  and  _291
REMARK  112  A    between atoms: _291  and  _292
REMARK  113  A    between atoms: _297  and  _299
REMARK  114  A    between atoms: _299  and  _300
REMARK  115  A    between atoms: _302  and  _304
REMARK  116  A    between atoms: _304  and  _305
REMARK  117  A    between atoms: _304  and  _307
REMARK  118  A    between atoms: _307  and  _308
REMARK  119  A    between atoms: _313  and  _315
REMARK  120  A    between atoms: _315  and  _316
REMARK  121  A    between atoms: _318  and  _320
REMARK  122  A    between atoms: _320  and  _321
REMARK  123  A    between atoms: _320  and  _323
REMARK  124  A    between atoms: _323  and  _324
REMARK                            x       y       z     vdW  Elec       q    Type
REMARK                         _______ _______ _______ _____ _____    ______ ____
ROOT
ATOM      1  O   HOH     1       6.700  -0.507  32.391  0.00  0.00    +0.000 OA
ENDROOT
TORSDOF 0
REMARK  Name = ../refined-set-2016/2gss/2gss_pocket.pdb
REMARK  124 active torsions:
REMARK  status: ('A' for Active; 'I' for Inactive)
REMARK    1  A    between atoms: _1  and  _3
REMARK    2  A    between atoms: _3  and  _4
REMARK    3  A    between atoms: _3  and  _6
REMARK    4  A    between atoms: _6  and  _7
REMARK    5  A    between atoms: _12  and  _13
REMARK    6  A    between atoms: _15  and  _17
REMARK    7  A    between atoms: _17  and  _18
REMARK    8  A    between atoms: _17  and  _20
REMARK    9  A    between atoms: _20  and  _21
REMARK   10  A    between atoms: _28  and  _29
REMARK   11  A    between atoms: _34  and  _36
REMARK   12  A    between atoms: _36  and  _37
REMARK   13  A    between atoms: _36  and  _39
REMARK   14  A    between atoms: _42  and  _44
REMARK   15  A    between atoms: _44  and  _45
REMARK   16  A    between atoms: _44  and  _47
REMARK   17  A    between atoms: _47  and  _48
REMARK   18  A    between atoms: _48  and  _49
REMARK   19  A    between atoms: _49  and  _50
REMARK   20  A    between atoms: _59  and  _61
REMARK   21  A    between atoms: _61  and  _62
REMARK   22  A    between atoms: _64  and  _66
REMARK   23  A    between atoms: _66  and  _67
REMARK   24  A    between atoms: _66  and  _69
REMARK   25  A    between atoms: _69  and  _70
REMARK   26  A    between atoms: _70  and  _71
REMARK   27  A    between atoms: _71  and  _72
REMARK   28  A    between atoms: _81  and  _83
REMARK   29  A    between atoms: _83  and  _84
REMARK   30  A    between atoms: _83  and  _86
REMARK   31  A    between atoms: _88  and  _90
REMARK   32  A    between atoms: _90  and  _91
REMARK   33  A    between atoms: _90  and  _93
REMARK   34  A    between atoms: _96  and  _98
REMARK   35  A    between atoms: _98  and  _99
REMARK   36  A    between atoms: _98  and  _101
REMARK   37  A    between atoms: _101  and  _102
REMARK   38  A    between atoms: _105  and  _107
REMARK   39  A    between atoms: _107  and  _108
REMARK   40  A    between atoms: _107  and  _110
REMARK   41  A    between atoms: _113  and  _115
REMARK   42  A    between atoms: _115  and  _116
REMARK   43  A    between atoms: _115  and  _118
REMARK   44  A    between atoms: _118  and  _119
REMARK   45  A    between atoms: _119  and  _120
REMARK   46  A    between atoms: _123  and  _125
REMARK   47  A    between atoms: _125  and  _126
REMARK   48  A    between atoms: _125  and  _128
REMARK   49  A    between atoms: _128  and  _129
REMARK   50  A    between atoms: _132  and  _134
REMARK   51  A    between atoms: _134  and  _135
REMARK   52  A    between atoms: _134  and  _137
REMARK   53  A    between atoms: _137  and  _138
REMARK   54  A    between atoms: _148  and  _150
REMARK   55  A    between atoms: _150  and  _151
REMARK   56  A    between atoms: _150  and  _153
REMARK   57  A    between atoms: _153  and  _154
REMARK   58  A    between atoms: _154  and  _155
REMARK   59  A    between atoms: _160  and  _162
REMARK   60  A    between atoms: _162  and  _163
REMARK   61  A    between atoms: _162  and  _165
REMARK   62  A    between atoms: _165  and  _166
REMARK   63  A    between atoms: _166  and  _167
REMARK   64  A    between atoms: _172  and  _174
REMARK   65  A    between atoms: _174  and  _175
REMARK   66  A    between atoms: _174  and  _177
REMARK   67  A    between atoms: _177  and  _178
REMARK   68  A    between atoms: _182  and  _183
REMARK   69  A    between atoms: _188  and  _190
REMARK   70  A    between atoms: _190  and  _191
REMARK   71  A    between atoms: _190  and  _193
REMARK   72  A    between atoms: _193  and  _194
REMARK   73  A    between atoms: _196  and  _198
REMARK   74  A    between atoms: _198  and  _199
REMARK   75  A    between atoms: _198  and  _201
REMARK   76  A    between atoms: _201  and  _202
REMARK   77  A    between atoms: _202  and  _203
REMARK   78  A    between atoms: _206  and  _208
REMARK   79  A    between atoms: _208  and  _209
REMARK   80  A    between atoms: _208  and  _211
REMARK   81  A    between atoms: _211  and  _212
REMARK   82  A    between atoms: _212  and  _213
REMARK   83  A    between atoms: _213  and  _214
REMARK   84  A    between atoms: _223  and  _225
REMARK   85  A    between atoms: _225  and  _226
REMARK   86  A    between atoms: _225  and  _228
REMARK   87  A    between atoms: _230  and  _232
REMARK   88  A    between atoms: _232  and  _233
REMARK   89  A    between atoms: _232  and  _235
REMARK   90  A    between atoms: _235  and  _236
REMARK   91  A    between atoms: _239  and  _241
REMARK   92  A    between atoms: _241  and  _242
REMARK   93  A    between atoms: _241  and  _244
REMARK   94  A    between atoms: _244  and  _245
REMARK   95  A    between atoms: _247  and  _249
REMARK   96  A    between atoms: _249  and  _250
REMARK   97  A    between atoms: _249  and  _252
REMARK   98  A    between atoms: _252  and  _253
REMARK   99  A    between atoms: _256  and  _258
REMARK  100  A    between atoms: _258  and  _259
REMARK  101  A    between atoms: _258  and  _261
REMARK  102  A    between atoms: _261  and  _262
REMARK  103  A    between atoms: _267  and  _268
REMARK  104  A    between atoms: _271  and  _272
REMARK  105  A    between atoms: _277  and  _279
REMARK  106  A    between atoms: _279  and  _280
REMARK  107  A    between atoms: _279  and  _282
REMARK  108  A    between atoms: _282  and  _283
REMARK  109  A    between atoms: _286  and  _288
REMARK  110  A    between atoms: _288  and  _289
REMARK  111  A    between atoms: _288  and  _291
REMARK  112  A    between atoms: _291  and  _292
REMARK  113  A    between atoms: _297  and  _299
REMARK  114  A    between atoms: _299  and  _300
REMARK  115  A    between atoms: _302  and  _304
REMARK  116  A    between atoms: _304  and  _305
REMARK  117  A    between atoms: _304  and  _307
REMARK  118  A    between atoms: _307  and  _308
REMARK  119  A    between atoms: _313  and  _315
REMARK  120  A    between atoms: _315  and  _316
REMARK  121  A    between atoms: _318  and  _320
REMARK  122  A    between atoms: _320  and  _321
REMARK  123  A    between atoms: _320  and  _323
REMARK  124  A    between atoms: _323  and  _324
REMARK                            x       y       z     vdW  Elec       q    Type
REMARK                         _______ _______ _______ _____ _____    ______ ____
ROOT
ATOM      1  O   HOH     1       5.537  -3.046  31.330  0.00  0.00    +0.000 OA
ENDROOT
TORSDOF 0
REMARK  Name = ../refined-set-2016/2gss/2gss_pocket.pdb
REMARK  124 active torsions:
REMARK  status: ('A' for Active; 'I' for Inactive)
REMARK    1  A    between atoms: _1  and  _3
REMARK    2  A    between atoms: _3  and  _4
REMARK    3  A    between atoms: _3  and  _6
REMARK    4  A    between atoms: _6  and  _7
REMARK    5  A    between atoms: _12  and  _13
REMARK    6  A    between atoms: _15  and  _17
REMARK    7  A    between atoms: _17  and  _18
REMARK    8  A    between atoms: _17  and  _20
REMARK    9  A    between atoms: _20  and  _21
REMARK   10  A    between atoms: _28  and  _29
REMARK   11  A    between atoms: _34  and  _36
REMARK   12  A    between atoms: _36  and  _37
REMARK   13  A    between atoms: _36  and  _39
REMARK   14  A    between atoms: _42  and  _44
REMARK   15  A    between atoms: _44  and  _45
REMARK   16  A    between atoms: _44  and  _47
REMARK   17  A    between atoms: _47  and  _48
REMARK   18  A    between atoms: _48  and  _49
REMARK   19  A    between atoms: _49  and  _50
REMARK   20  A    between atoms: _59  and  _61
REMARK   21  A    between atoms: _61  and  _62
REMARK   22  A    between atoms: _64  and  _66
REMARK   23  A    between atoms: _66  and  _67
REMARK   24  A    between atoms: _66  and  _69
REMARK   25  A    between atoms: _69  and  _70
REMARK   26  A    between atoms: _70  and  _71
REMARK   27  A    between atoms: _71  and  _72
REMARK   28  A    between atoms: _81  and  _83
REMARK   29  A    between atoms: _83  and  _84
REMARK   30  A    between atoms: _83  and  _86
REMARK   31  A    between atoms: _88  and  _90
REMARK   32  A    between atoms: _90  and  _91
REMARK   33  A    between atoms: _90  and  _93
REMARK   34  A    between atoms: _96  and  _98
REMARK   35  A    between atoms: _98  and  _99
REMARK   36  A    between atoms: _98  and  _101
REMARK   37  A    between atoms: _101  and  _102
REMARK   38  A    between atoms: _105  and  _107
REMARK   39  A    between atoms: _107  and  _108
REMARK   40  A    between atoms: _107  and  _110
REMARK   41  A    between atoms: _113  and  _115
REMARK   42  A    between atoms: _115  and  _116
REMARK   43  A    between atoms: _115  and  _118
REMARK   44  A    between atoms: _118  and  _119
REMARK   45  A    between atoms: _119  and  _120
REMARK   46  A    between atoms: _123  and  _125
REMARK   47  A    between atoms: _125  and  _126
REMARK   48  A    between atoms: _125  and  _128
REMARK   49  A    between atoms: _128  and  _129
REMARK   50  A    between atoms: _132  and  _134
REMARK   51  A    between atoms: _134  and  _135
REMARK   52  A    between atoms: _134  and  _137
REMARK   53  A    between atoms: _137  and  _138
REMARK   54  A    between atoms: _148  and  _150
REMARK   55  A    between atoms: _150  and  _151
REMARK   56  A    between atoms: _150  and  _153
REMARK   57  A    between atoms: _153  and  _154
REMARK   58  A    between atoms: _154  and  _155
REMARK   59  A    between atoms: _160  and  _162
REMARK   60  A    between atoms: _162  and  _163
REMARK   61  A    between atoms: _162  and  _165
REMARK   62  A    between atoms: _165  and  _166
REMARK   63  A    between atoms: _166  and  _167
REMARK   64  A    between atoms: _172  and  _174
REMARK   65  A    between atoms: _174  and  _175
REMARK   66  A    between atoms: _174  and  _177
REMARK   67  A    between atoms: _177  and  _178
REMARK   68  A    between atoms: _182  and  _183
REMARK   69  A    between atoms: _188  and  _190
REMARK   70  A    between atoms: _190  and  _191
REMARK   71  A    between atoms: _190  and  _193
REMARK   72  A    between atoms: _193  and  _194
REMARK   73  A    between atoms: _196  and  _198
REMARK   74  A    between atoms: _198  and  _199
REMARK   75  A    between atoms: _198  and  _201
REMARK   76  A    between atoms: _201  and  _202
REMARK   77  A    between atoms: _202  and  _203
REMARK   78  A    between atoms: _206  and  _208
REMARK   79  A    between atoms: _208  and  _209
REMARK   80  A    between atoms: _208  and  _211
REMARK   81  A    between atoms: _211  and  _212
REMARK   82  A    between atoms: _212  and  _213
REMARK   83  A    between atoms: _213  and  _214
REMARK   84  A    between atoms: _223  and  _225
REMARK   85  A    between atoms: _225  and  _226
REMARK   86  A    between atoms: _225  and  _228
REMARK   87  A    between atoms: _230  and  _232
REMARK   88  A    between atoms: _232  and  _233
REMARK   89  A    between atoms: _232  and  _235
REMARK   90  A    between atoms: _235  and  _236
REMARK   91  A    between atoms: _239  and  _241
REMARK   92  A    between atoms: _241  and  _242
REMARK   93  A    between atoms: _241  and  _244
REMARK   94  A    between atoms: _244  and  _245
REMARK   95  A    between atoms: _247  and  _249
REMARK   96  A    between atoms: _249  and  _250
REMARK   97  A    between atoms: _249  and  _252
REMARK   98  A    between atoms: _252  and  _253
REMARK   99  A    between atoms: _256  and  _258
REMARK  100  A    between atoms: _258  and  _259
REMARK  101  A    between atoms: _258  and  _261
REMARK  102  A    between atoms: _261  and  _262
REMARK  103  A    between atoms: _267  and  _268
REMARK  104  A    between atoms: _271  and  _272
REMARK  105  A    between atoms: _277  and  _279
REMARK  106  A    between atoms: _279  and  _280
REMARK  107  A    between atoms: _279  and  _282
REMARK  108  A    between atoms: _282  and  _283
REMARK  109  A    between atoms: _286  and  _288
REMARK  110  A    between atoms: _288  and  _289
REMARK  111  A    between atoms: _288  and  _291
REMARK  112  A    between atoms: _291  and  _292
REMARK  113  A    between atoms: _297  and  _299
REMARK  114  A    between atoms: _299  and  _300
REMARK  115  A    between atoms: _302  and  _304
REMARK  116  A    between atoms: _304  and  _305
REMARK  117  A    between atoms: _304  and  _307
REMARK  118  A    between atoms: _307  and  _308
REMARK  119  A    between atoms: _313  and  _315
REMARK  120  A    between atoms: _315  and  _316
REMARK  121  A    between atoms: _318  and  _320
REMARK  122  A    between atoms: _320  and  _321
REMARK  123  A    between atoms: _320  and  _323
REMARK  124  A    between atoms: _323  and  _324
REMARK                            x       y       z     vdW  Elec       q    Type
REMARK                         _______ _______ _______ _____ _____    ______ ____
ROOT
ATOM      1  O   HOH     1      15.828   8.215  24.891  0.00  0.00    +0.000 OA
ENDROOT
TORSDOF 0
REMARK  Name = ../refined-set-2016/2gss/2gss_pocket.pdb
REMARK  124 active torsions:
REMARK  status: ('A' for Active; 'I' for Inactive)
REMARK    1  A    between atoms: _1  and  _3
REMARK    2  A    between atoms: _3  and  _4
REMARK    3  A    between atoms: _3  and  _6
REMARK    4  A    between atoms: _6  and  _7
REMARK    5  A    between atoms: _12  and  _13
REMARK    6  A    between atoms: _15  and  _17
REMARK    7  A    between atoms: _17  and  _18
REMARK    8  A    between atoms: _17  and  _20
REMARK    9  A    between atoms: _20  and  _21
REMARK   10  A    between atoms: _28  and  _29
REMARK   11  A    between atoms: _34  and  _36
REMARK   12  A    between atoms: _36  and  _37
REMARK   13  A    between atoms: _36  and  _39
REMARK   14  A    between atoms: _42  and  _44
REMARK   15  A    between atoms: _44  and  _45
REMARK   16  A    between atoms: _44  and  _47
REMARK   17  A    between atoms: _47  and  _48
REMARK   18  A    between atoms: _48  and  _49
REMARK   19  A    between atoms: _49  and  _50
REMARK   20  A    between atoms: _59  and  _61
REMARK   21  A    between atoms: _61  and  _62
REMARK   22  A    between atoms: _64  and  _66
REMARK   23  A    between atoms: _66  and  _67
REMARK   24  A    between atoms: _66  and  _69
REMARK   25  A    between atoms: _69  and  _70
REMARK   26  A    between atoms: _70  and  _71
REMARK   27  A    between atoms: _71  and  _72
REMARK   28  A    between atoms: _81  and  _83
REMARK   29  A    between atoms: _83  and  _84
REMARK   30  A    between atoms: _83  and  _86
REMARK   31  A    between atoms: _88  and  _90
REMARK   32  A    between atoms: _90  and  _91
REMARK   33  A    between atoms: _90  and  _93
REMARK   34  A    between atoms: _96  and  _98
REMARK   35  A    between atoms: _98  and  _99
REMARK   36  A    between atoms: _98  and  _101
REMARK   37  A    between atoms: _101  and  _102
REMARK   38  A    between atoms: _105  and  _107
REMARK   39  A    between atoms: _107  and  _108
REMARK   40  A    between atoms: _107  and  _110
REMARK   41  A    between atoms: _113  and  _115
REMARK   42  A    between atoms: _115  and  _116
REMARK   43  A    between atoms: _115  and  _118
REMARK   44  A    between atoms: _118  and  _119
REMARK   45  A    between atoms: _119  and  _120
REMARK   46  A    between atoms: _123  and  _125
REMARK   47  A    between atoms: _125  and  _126
REMARK   48  A    between atoms: _125  and  _128
REMARK   49  A    between atoms: _128  and  _129
REMARK   50  A    between atoms: _132  and  _134
REMARK   51  A    between atoms: _134  and  _135
REMARK   52  A    between atoms: _134  and  _137
REMARK   53  A    between atoms: _137  and  _138
REMARK   54  A    between atoms: _148  and  _150
REMARK   55  A    between atoms: _150  and  _151
REMARK   56  A    between atoms: _150  and  _153
REMARK   57  A    between atoms: _153  and  _154
REMARK   58  A    between atoms: _154  and  _155
REMARK   59  A    between atoms: _160  and  _162
REMARK   60  A    between atoms: _162  and  _163
REMARK   61  A    between atoms: _162  and  _165
REMARK   62  A    between atoms: _165  and  _166
REMARK   63  A    between atoms: _166  and  _167
REMARK   64  A    between atoms: _172  and  _174
REMARK   65  A    between atoms: _174  and  _175
REMARK   66  A    between atoms: _174  and  _177
REMARK   67  A    between atoms: _177  and  _178
REMARK   68  A    between atoms: _182  and  _183
REMARK   69  A    between atoms: _188  and  _190
REMARK   70  A    between atoms: _190  and  _191
REMARK   71  A    between atoms: _190  and  _193
REMARK   72  A    between atoms: _193  and  _194
REMARK   73  A    between atoms: _196  and  _198
REMARK   74  A    between atoms: _198  and  _199
REMARK   75  A    between atoms: _198  and  _201
REMARK   76  A    between atoms: _201  and  _202
REMARK   77  A    between atoms: _202  and  _203
REMARK   78  A    between atoms: _206  and  _208
REMARK   79  A    between atoms: _208  and  _209
REMARK   80  A    between atoms: _208  and  _211
REMARK   81  A    between atoms: _211  and  _212
REMARK   82  A    between atoms: _212  and  _213
REMARK   83  A    between atoms: _213  and  _214
REMARK   84  A    between atoms: _223  and  _225
REMARK   85  A    between atoms: _225  and  _226
REMARK   86  A    between atoms: _225  and  _228
REMARK   87  A    between atoms: _230  and  _232
REMARK   88  A    between atoms: _232  and  _233
REMARK   89  A    between atoms: _232  and  _235
REMARK   90  A    between atoms: _235  and  _236
REMARK   91  A    between atoms: _239  and  _241
REMARK   92  A    between atoms: _241  and  _242
REMARK   93  A    between atoms: _241  and  _244
REMARK   94  A    between atoms: _244  and  _245
REMARK   95  A    between atoms: _247  and  _249
REMARK   96  A    between atoms: _249  and  _250
REMARK   97  A    between atoms: _249  and  _252
REMARK   98  A    between atoms: _252  and  _253
REMARK   99  A    between atoms: _256  and  _258
REMARK  100  A    between atoms: _258  and  _259
REMARK  101  A    between atoms: _258  and  _261
REMARK  102  A    between atoms: _261  and  _262
REMARK  103  A    between atoms: _267  and  _268
REMARK  104  A    between atoms: _271  and  _272
REMARK  105  A    between atoms: _277  and  _279
REMARK  106  A    between atoms: _279  and  _280
REMARK  107  A    between atoms: _279  and  _282
REMARK  108  A    between atoms: _282  and  _283
REMARK  109  A    between atoms: _286  and  _288
REMARK  110  A    between atoms: _288  and  _289
REMARK  111  A    between atoms: _288  and  _291
REMARK  112  A    between atoms: _291  and  _292
REMARK  113  A    between atoms: _297  and  _299
REMARK  114  A    between atoms: _299  and  _300
REMARK  115  A    between atoms: _302  and  _304
REMARK  116  A    between atoms: _304  and  _305
REMARK  117  A    between atoms: _304  and  _307
REMARK  118  A    between atoms: _307  and  _308
REMARK  119  A    between atoms: _313  and  _315
REMARK  120  A    between atoms: _315  and  _316
REMARK  121  A    between atoms: _318  and  _320
REMARK  122  A    between atoms: _320  and  _321
REMARK  123  A    between atoms: _320  and  _323
REMARK  124  A    between atoms: _323  and  _324
REMARK                            x       y       z     vdW  Elec       q    Type
REMARK                         _______ _______ _______ _____ _____    ______ ____
ROOT
ATOM      1  O   HOH     1      12.262   4.512  26.282  0.00  0.00    +0.000 OA
ENDROOT
TORSDOF 0
REMARK  Name = ../refined-set-2016/2gss/2gss_pocket.pdb
REMARK  124 active torsions:
REMARK  status: ('A' for Active; 'I' for Inactive)
REMARK    1  A    between atoms: _1  and  _3
REMARK    2  A    between atoms: _3  and  _4
REMARK    3  A    between atoms: _3  and  _6
REMARK    4  A    between atoms: _6  and  _7
REMARK    5  A    between atoms: _12  and  _13
REMARK    6  A    between atoms: _15  and  _17
REMARK    7  A    between atoms: _17  and  _18
REMARK    8  A    between atoms: _17  and  _20
REMARK    9  A    between atoms: _20  and  _21
REMARK   10  A    between atoms: _28  and  _29
REMARK   11  A    between atoms: _34  and  _36
REMARK   12  A    between atoms: _36  and  _37
REMARK   13  A    between atoms: _36  and  _39
REMARK   14  A    between atoms: _42  and  _44
REMARK   15  A    between atoms: _44  and  _45
REMARK   16  A    between atoms: _44  and  _47
REMARK   17  A    between atoms: _47  and  _48
REMARK   18  A    between atoms: _48  and  _49
REMARK   19  A    between atoms: _49  and  _50
REMARK   20  A    between atoms: _59  and  _61
REMARK   21  A    between atoms: _61  and  _62
REMARK   22  A    between atoms: _64  and  _66
REMARK   23  A    between atoms: _66  and  _67
REMARK   24  A    between atoms: _66  and  _69
REMARK   25  A    between atoms: _69  and  _70
REMARK   26  A    between atoms: _70  and  _71
REMARK   27  A    between atoms: _71  and  _72
REMARK   28  A    between atoms: _81  and  _83
REMARK   29  A    between atoms: _83  and  _84
REMARK   30  A    between atoms: _83  and  _86
REMARK   31  A    between atoms: _88  and  _90
REMARK   32  A    between atoms: _90  and  _91
REMARK   33  A    between atoms: _90  and  _93
REMARK   34  A    between atoms: _96  and  _98
REMARK   35  A    between atoms: _98  and  _99
REMARK   36  A    between atoms: _98  and  _101
REMARK   37  A    between atoms: _101  and  _102
REMARK   38  A    between atoms: _105  and  _107
REMARK   39  A    between atoms: _107  and  _108
REMARK   40  A    between atoms: _107  and  _110
REMARK   41  A    between atoms: _113  and  _115
REMARK   42  A    between atoms: _115  and  _116
REMARK   43  A    between atoms: _115  and  _118
REMARK   44  A    between atoms: _118  and  _119
REMARK   45  A    between atoms: _119  and  _120
REMARK   46  A    between atoms: _123  and  _125
REMARK   47  A    between atoms: _125  and  _126
REMARK   48  A    between atoms: _125  and  _128
REMARK   49  A    between atoms: _128  and  _129
REMARK   50  A    between atoms: _132  and  _134
REMARK   51  A    between atoms: _134  and  _135
REMARK   52  A    between atoms: _134  and  _137
REMARK   53  A    between atoms: _137  and  _138
REMARK   54  A    between atoms: _148  and  _150
REMARK   55  A    between atoms: _150  and  _151
REMARK   56  A    between atoms: _150  and  _153
REMARK   57  A    between atoms: _153  and  _154
REMARK   58  A    between atoms: _154  and  _155
REMARK   59  A    between atoms: _160  and  _162
REMARK   60  A    between atoms: _162  and  _163
REMARK   61  A    between atoms: _162  and  _165
REMARK   62  A    between atoms: _165  and  _166
REMARK   63  A    between atoms: _166  and  _167
REMARK   64  A    between atoms: _172  and  _174
REMARK   65  A    between atoms: _174  and  _175
REMARK   66  A    between atoms: _174  and  _177
REMARK   67  A    between atoms: _177  and  _178
REMARK   68  A    between atoms: _182  and  _183
REMARK   69  A    between atoms: _188  and  _190
REMARK   70  A    between atoms: _190  and  _191
REMARK   71  A    between atoms: _190  and  _193
REMARK   72  A    between atoms: _193  and  _194
REMARK   73  A    between atoms: _196  and  _198
REMARK   74  A    between atoms: _198  and  _199
REMARK   75  A    between atoms: _198  and  _201
REMARK   76  A    between atoms: _201  and  _202
REMARK   77  A    between atoms: _202  and  _203
REMARK   78  A    between atoms: _206  and  _208
REMARK   79  A    between atoms: _208  and  _209
REMARK   80  A    between atoms: _208  and  _211
REMARK   81  A    between atoms: _211  and  _212
REMARK   82  A    between atoms: _212  and  _213
REMARK   83  A    between atoms: _213  and  _214
REMARK   84  A    between atoms: _223  and  _225
REMARK   85  A    between atoms: _225  and  _226
REMARK   86  A    between atoms: _225  and  _228
REMARK   87  A    between atoms: _230  and  _232
REMARK   88  A    between atoms: _232  and  _233
REMARK   89  A    between atoms: _232  and  _235
REMARK   90  A    between atoms: _235  and  _236
REMARK   91  A    between atoms: _239  and  _241
REMARK   92  A    between atoms: _241  and  _242
REMARK   93  A    between atoms: _241  and  _244
REMARK   94  A    between atoms: _244  and  _245
REMARK   95  A    between atoms: _247  and  _249
REMARK   96  A    between atoms: _249  and  _250
REMARK   97  A    between atoms: _249  and  _252
REMARK   98  A    between atoms: _252  and  _253
REMARK   99  A    between atoms: _256  and  _258
REMARK  100  A    between atoms: _258  and  _259
REMARK  101  A    between atoms: _258  and  _261
REMARK  102  A    between atoms: _261  and  _262
REMARK  103  A    between atoms: _267  and  _268
REMARK  104  A    between atoms: _271  and  _272
REMARK  105  A    between atoms: _277  and  _279
REMARK  106  A    between atoms: _279  and  _280
REMARK  107  A    between atoms: _279  and  _282
REMARK  108  A    between atoms: _282  and  _283
REMARK  109  A    between atoms: _286  and  _288
REMARK  110  A    between atoms: _288  and  _289
REMARK  111  A    between atoms: _288  and  _291
REMARK  112  A    between atoms: _291  and  _292
REMARK  113  A    between atoms: _297  and  _299
REMARK  114  A    between atoms: _299  and  _300
REMARK  115  A    between atoms: _302  and  _304
REMARK  116  A    between atoms: _304  and  _305
REMARK  117  A    between atoms: _304  and  _307
REMARK  118  A    between atoms: _307  and  _308
REMARK  119  A    between atoms: _313  and  _315
REMARK  120  A    between atoms: _315  and  _316
REMARK  121  A    between atoms: _318  and  _320
REMARK  122  A    between atoms: _320  and  _321
REMARK  123  A    between atoms: _320  and  _323
REMARK  124  A    between atoms: _323  and  _324
REMARK                            x       y       z     vdW  Elec       q    Type
REMARK                         _______ _______ _______ _____ _____    ______ ____
ROOT
ATOM      1  O   HOH     1       1.996   1.871  27.364  0.00  0.00    +0.000 OA
ENDROOT
TORSDOF 0
REMARK  Name = ../refined-set-2016/2gss/2gss_pocket.pdb
REMARK  124 active torsions:
REMARK  status: ('A' for Active; 'I' for Inactive)
REMARK    1  A    between atoms: _1  and  _3
REMARK    2  A    between atoms: _3  and  _4
REMARK    3  A    between atoms: _3  and  _6
REMARK    4  A    between atoms: _6  and  _7
REMARK    5  A    between atoms: _12  and  _13
REMARK    6  A    between atoms: _15  and  _17
REMARK    7  A    between atoms: _17  and  _18
REMARK    8  A    between atoms: _17  and  _20
REMARK    9  A    between atoms: _20  and  _21
REMARK   10  A    between atoms: _28  and  _29
REMARK   11  A    between atoms: _34  and  _36
REMARK   12  A    between atoms: _36  and  _37
REMARK   13  A    between atoms: _36  and  _39
REMARK   14  A    between atoms: _42  and  _44
REMARK   15  A    between atoms: _44  and  _45
REMARK   16  A    between atoms: _44  and  _47
REMARK   17  A    between atoms: _47  and  _48
REMARK   18  A    between atoms: _48  and  _49
REMARK   19  A    between atoms: _49  and  _50
REMARK   20  A    between atoms: _59  and  _61
REMARK   21  A    between atoms: _61  and  _62
REMARK   22  A    between atoms: _64  and  _66
REMARK   23  A    between atoms: _66  and  _67
REMARK   24  A    between atoms: _66  and  _69
REMARK   25  A    between atoms: _69  and  _70
REMARK   26  A    between atoms: _70  and  _71
REMARK   27  A    between atoms: _71  and  _72
REMARK   28  A    between atoms: _81  and  _83
REMARK   29  A    between atoms: _83  and  _84
REMARK   30  A    between atoms: _83  and  _86
REMARK   31  A    between atoms: _88  and  _90
REMARK   32  A    between atoms: _90  and  _91
REMARK   33  A    between atoms: _90  and  _93
REMARK   34  A    between atoms: _96  and  _98
REMARK   35  A    between atoms: _98  and  _99
REMARK   36  A    between atoms: _98  and  _101
REMARK   37  A    between atoms: _101  and  _102
REMARK   38  A    between atoms: _105  and  _107
REMARK   39  A    between atoms: _107  and  _108
REMARK   40  A    between atoms: _107  and  _110
REMARK   41  A    between atoms: _113  and  _115
REMARK   42  A    between atoms: _115  and  _116
REMARK   43  A    between atoms: _115  and  _118
REMARK   44  A    between atoms: _118  and  _119
REMARK   45  A    between atoms: _119  and  _120
REMARK   46  A    between atoms: _123  and  _125
REMARK   47  A    between atoms: _125  and  _126
REMARK   48  A    between atoms: _125  and  _128
REMARK   49  A    between atoms: _128  and  _129
REMARK   50  A    between atoms: _132  and  _134
REMARK   51  A    between atoms: _134  and  _135
REMARK   52  A    between atoms: _134  and  _137
REMARK   53  A    between atoms: _137  and  _138
REMARK   54  A    between atoms: _148  and  _150
REMARK   55  A    between atoms: _150  and  _151
REMARK   56  A    between atoms: _150  and  _153
REMARK   57  A    between atoms: _153  and  _154
REMARK   58  A    between atoms: _154  and  _155
REMARK   59  A    between atoms: _160  and  _162
REMARK   60  A    between atoms: _162  and  _163
REMARK   61  A    between atoms: _162  and  _165
REMARK   62  A    between atoms: _165  and  _166
REMARK   63  A    between atoms: _166  and  _167
REMARK   64  A    between atoms: _172  and  _174
REMARK   65  A    between atoms: _174  and  _175
REMARK   66  A    between atoms: _174  and  _177
REMARK   67  A    between atoms: _177  and  _178
REMARK   68  A    between atoms: _182  and  _183
REMARK   69  A    between atoms: _188  and  _190
REMARK   70  A    between atoms: _190  and  _191
REMARK   71  A    between atoms: _190  and  _193
REMARK   72  A    between atoms: _193  and  _194
REMARK   73  A    between atoms: _196  and  _198
REMARK   74  A    between atoms: _198  and  _199
REMARK   75  A    between atoms: _198  and  _201
REMARK   76  A    between atoms: _201  and  _202
REMARK   77  A    between atoms: _202  and  _203
REMARK   78  A    between atoms: _206  and  _208
REMARK   79  A    between atoms: _208  and  _209
REMARK   80  A    between atoms: _208  and  _211
REMARK   81  A    between atoms: _211  and  _212
REMARK   82  A    between atoms: _212  and  _213
REMARK   83  A    between atoms: _213  and  _214
REMARK   84  A    between atoms: _223  and  _225
REMARK   85  A    between atoms: _225  and  _226
REMARK   86  A    between atoms: _225  and  _228
REMARK   87  A    between atoms: _230  and  _232
REMARK   88  A    between atoms: _232  and  _233
REMARK   89  A    between atoms: _232  and  _235
REMARK   90  A    between atoms: _235  and  _236
REMARK   91  A    between atoms: _239  and  _241
REMARK   92  A    between atoms: _241  and  _242
REMARK   93  A    between atoms: _241  and  _244
REMARK   94  A    between atoms: _244  and  _245
REMARK   95  A    between atoms: _247  and  _249
REMARK   96  A    between atoms: _249  and  _250
REMARK   97  A    between atoms: _249  and  _252
REMARK   98  A    between atoms: _252  and  _253
REMARK   99  A    between atoms: _256  and  _258
REMARK  100  A    between atoms: _258  and  _259
REMARK  101  A    between atoms: _258  and  _261
REMARK  102  A    between atoms: _261  and  _262
REMARK  103  A    between atoms: _267  and  _268
REMARK  104  A    between atoms: _271  and  _272
REMARK  105  A    between atoms: _277  and  _279
REMARK  106  A    between atoms: _279  and  _280
REMARK  107  A    between atoms: _279  and  _282
REMARK  108  A    between atoms: _282  and  _283
REMARK  109  A    between atoms: _286  and  _288
REMARK  110  A    between atoms: _288  and  _289
REMARK  111  A    between atoms: _288  and  _291
REMARK  112  A    between atoms: _291  and  _292
REMARK  113  A    between atoms: _297  and  _299
REMARK  114  A    between atoms: _299  and  _300
REMARK  115  A    between atoms: _302  and  _304
REMARK  116  A    between atoms: _304  and  _305
REMARK  117  A    between atoms: _304  and  _307
REMARK  118  A    between atoms: _307  and  _308
REMARK  119  A    between atoms: _313  and  _315
REMARK  120  A    between atoms: _315  and  _316
REMARK  121  A    between atoms: _318  and  _320
REMARK  122  A    between atoms: _320  and  _321
REMARK  123  A    between atoms: _320  and  _323
REMARK  124  A    between atoms: _323  and  _324
REMARK                            x       y       z     vdW  Elec       q    Type
REMARK                         _______ _______ _______ _____ _____    ______ ____
ROOT
ATOM      1  O   HOH     1      10.044   7.768  29.380  0.00  0.00    +0.000 OA
ENDROOT
TORSDOF 0
REMARK  Name = ../refined-set-2016/2gss/2gss_pocket.pdb
REMARK  124 active torsions:
REMARK  status: ('A' for Active; 'I' for Inactive)
REMARK    1  A    between atoms: _1  and  _3
REMARK    2  A    between atoms: _3  and  _4
REMARK    3  A    between atoms: _3  and  _6
REMARK    4  A    between atoms: _6  and  _7
REMARK    5  A    between atoms: _12  and  _13
REMARK    6  A    between atoms: _15  and  _17
REMARK    7  A    between atoms: _17  and  _18
REMARK    8  A    between atoms: _17  and  _20
REMARK    9  A    between atoms: _20  and  _21
REMARK   10  A    between atoms: _28  and  _29
REMARK   11  A    between atoms: _34  and  _36
REMARK   12  A    between atoms: _36  and  _37
REMARK   13  A    between atoms: _36  and  _39
REMARK   14  A    between atoms: _42  and  _44
REMARK   15  A    between atoms: _44  and  _45
REMARK   16  A    between atoms: _44  and  _47
REMARK   17  A    between atoms: _47  and  _48
REMARK   18  A    between atoms: _48  and  _49
REMARK   19  A    between atoms: _49  and  _50
REMARK   20  A    between atoms: _59  and  _61
REMARK   21  A    between atoms: _61  and  _62
REMARK   22  A    between atoms: _64  and  _66
REMARK   23  A    between atoms: _66  and  _67
REMARK   24  A    between atoms: _66  and  _69
REMARK   25  A    between atoms: _69  and  _70
REMARK   26  A    between atoms: _70  and  _71
REMARK   27  A    between atoms: _71  and  _72
REMARK   28  A    between atoms: _81  and  _83
REMARK   29  A    between atoms: _83  and  _84
REMARK   30  A    between atoms: _83  and  _86
REMARK   31  A    between atoms: _88  and  _90
REMARK   32  A    between atoms: _90  and  _91
REMARK   33  A    between atoms: _90  and  _93
REMARK   34  A    between atoms: _96  and  _98
REMARK   35  A    between atoms: _98  and  _99
REMARK   36  A    between atoms: _98  and  _101
REMARK   37  A    between atoms: _101  and  _102
REMARK   38  A    between atoms: _105  and  _107
REMARK   39  A    between atoms: _107  and  _108
REMARK   40  A    between atoms: _107  and  _110
REMARK   41  A    between atoms: _113  and  _115
REMARK   42  A    between atoms: _115  and  _116
REMARK   43  A    between atoms: _115  and  _118
REMARK   44  A    between atoms: _118  and  _119
REMARK   45  A    between atoms: _119  and  _120
REMARK   46  A    between atoms: _123  and  _125
REMARK   47  A    between atoms: _125  and  _126
REMARK   48  A    between atoms: _125  and  _128
REMARK   49  A    between atoms: _128  and  _129
REMARK   50  A    between atoms: _132  and  _134
REMARK   51  A    between atoms: _134  and  _135
REMARK   52  A    between atoms: _134  and  _137
REMARK   53  A    between atoms: _137  and  _138
REMARK   54  A    between atoms: _148  and  _150
REMARK   55  A    between atoms: _150  and  _151
REMARK   56  A    between atoms: _150  and  _153
REMARK   57  A    between atoms: _153  and  _154
REMARK   58  A    between atoms: _154  and  _155
REMARK   59  A    between atoms: _160  and  _162
REMARK   60  A    between atoms: _162  and  _163
REMARK   61  A    between atoms: _162  and  _165
REMARK   62  A    between atoms: _165  and  _166
REMARK   63  A    between atoms: _166  and  _167
REMARK   64  A    between atoms: _172  and  _174
REMARK   65  A    between atoms: _174  and  _175
REMARK   66  A    between atoms: _174  and  _177
REMARK   67  A    between atoms: _177  and  _178
REMARK   68  A    between atoms: _182  and  _183
REMARK   69  A    between atoms: _188  and  _190
REMARK   70  A    between atoms: _190  and  _191
REMARK   71  A    between atoms: _190  and  _193
REMARK   72  A    between atoms: _193  and  _194
REMARK   73  A    between atoms: _196  and  _198
REMARK   74  A    between atoms: _198  and  _199
REMARK   75  A    between atoms: _198  and  _201
REMARK   76  A    between atoms: _201  and  _202
REMARK   77  A    between atoms: _202  and  _203
REMARK   78  A    between atoms: _206  and  _208
REMARK   79  A    between atoms: _208  and  _209
REMARK   80  A    between atoms: _208  and  _211
REMARK   81  A    between atoms: _211  and  _212
REMARK   82  A    between atoms: _212  and  _213
REMARK   83  A    between atoms: _213  and  _214
REMARK   84  A    between atoms: _223  and  _225
REMARK   85  A    between atoms: _225  and  _226
REMARK   86  A    between atoms: _225  and  _228
REMARK   87  A    between atoms: _230  and  _232
REMARK   88  A    between atoms: _232  and  _233
REMARK   89  A    between atoms: _232  and  _235
REMARK   90  A    between atoms: _235  and  _236
REMARK   91  A    between atoms: _239  and  _241
REMARK   92  A    between atoms: _241  and  _242
REMARK   93  A    between atoms: _241  and  _244
REMARK   94  A    between atoms: _244  and  _245
REMARK   95  A    between atoms: _247  and  _249
REMARK   96  A    between atoms: _249  and  _250
REMARK   97  A    between atoms: _249  and  _252
REMARK   98  A    between atoms: _252  and  _253
REMARK   99  A    between atoms: _256  and  _258
REMARK  100  A    between atoms: _258  and  _259
REMARK  101  A    between atoms: _258  and  _261
REMARK  102  A    between atoms: _261  and  _262
REMARK  103  A    between atoms: _267  and  _268
REMARK  104  A    between atoms: _271  and  _272
REMARK  105  A    between atoms: _277  and  _279
REMARK  106  A    between atoms: _279  and  _280
REMARK  107  A    between atoms: _279  and  _282
REMARK  108  A    between atoms: _282  and  _283
REMARK  109  A    between atoms: _286  and  _288
REMARK  110  A    between atoms: _288  and  _289
REMARK  111  A    between atoms: _288  and  _291
REMARK  112  A    between atoms: _291  and  _292
REMARK  113  A    between atoms: _297  and  _299
REMARK  114  A    between atoms: _299  and  _300
REMARK  115  A    between atoms: _302  and  _304
REMARK  116  A    between atoms: _304  and  _305
REMARK  117  A    between atoms: _304  and  _307
REMARK  118  A    between atoms: _307  and  _308
REMARK  119  A    between atoms: _313  and  _315
REMARK  120  A    between atoms: _315  and  _316
REMARK  121  A    between atoms: _318  and  _320
REMARK  122  A    between atoms: _320  and  _321
REMARK  123  A    between atoms: _320  and  _323
REMARK  124  A    between atoms: _323  and  _324
REMARK                            x       y       z     vdW  Elec       q    Type
REMARK                         _______ _______ _______ _____ _____    ______ ____
ROOT
ATOM      1  O   HOH     1       5.926  -2.629  36.204  0.00  0.00    +0.000 OA
ENDROOT
TORSDOF 0
REMARK  Name = ../refined-set-2016/2gss/2gss_pocket.pdb
REMARK  124 active torsions:
REMARK  status: ('A' for Active; 'I' for Inactive)
REMARK    1  A    between atoms: _1  and  _3
REMARK    2  A    between atoms: _3  and  _4
REMARK    3  A    between atoms: _3  and  _6
REMARK    4  A    between atoms: _6  and  _7
REMARK    5  A    between atoms: _12  and  _13
REMARK    6  A    between atoms: _15  and  _17
REMARK    7  A    between atoms: _17  and  _18
REMARK    8  A    between atoms: _17  and  _20
REMARK    9  A    between atoms: _20  and  _21
REMARK   10  A    between atoms: _28  and  _29
REMARK   11  A    between atoms: _34  and  _36
REMARK   12  A    between atoms: _36  and  _37
REMARK   13  A    between atoms: _36  and  _39
REMARK   14  A    between atoms: _42  and  _44
REMARK   15  A    between atoms: _44  and  _45
REMARK   16  A    between atoms: _44  and  _47
REMARK   17  A    between atoms: _47  and  _48
REMARK   18  A    between atoms: _48  and  _49
REMARK   19  A    between atoms: _49  and  _50
REMARK   20  A    between atoms: _59  and  _61
REMARK   21  A    between atoms: _61  and  _62
REMARK   22  A    between atoms: _64  and  _66
REMARK   23  A    between atoms: _66  and  _67
REMARK   24  A    between atoms: _66  and  _69
REMARK   25  A    between atoms: _69  and  _70
REMARK   26  A    between atoms: _70  and  _71
REMARK   27  A    between atoms: _71  and  _72
REMARK   28  A    between atoms: _81  and  _83
REMARK   29  A    between atoms: _83  and  _84
REMARK   30  A    between atoms: _83  and  _86
REMARK   31  A    between atoms: _88  and  _90
REMARK   32  A    between atoms: _90  and  _91
REMARK   33  A    between atoms: _90  and  _93
REMARK   34  A    between atoms: _96  and  _98
REMARK   35  A    between atoms: _98  and  _99
REMARK   36  A    between atoms: _98  and  _101
REMARK   37  A    between atoms: _101  and  _102
REMARK   38  A    between atoms: _105  and  _107
REMARK   39  A    between atoms: _107  and  _108
REMARK   40  A    between atoms: _107  and  _110
REMARK   41  A    between atoms: _113  and  _115
REMARK   42  A    between atoms: _115  and  _116
REMARK   43  A    between atoms: _115  and  _118
REMARK   44  A    between atoms: _118  and  _119
REMARK   45  A    between atoms: _119  and  _120
REMARK   46  A    between atoms: _123  and  _125
REMARK   47  A    between atoms: _125  and  _126
REMARK   48  A    between atoms: _125  and  _128
REMARK   49  A    between atoms: _128  and  _129
REMARK   50  A    between atoms: _132  and  _134
REMARK   51  A    between atoms: _134  and  _135
REMARK   52  A    between atoms: _134  and  _137
REMARK   53  A    between atoms: _137  and  _138
REMARK   54  A    between atoms: _148  and  _150
REMARK   55  A    between atoms: _150  and  _151
REMARK   56  A    between atoms: _150  and  _153
REMARK   57  A    between atoms: _153  and  _154
REMARK   58  A    between atoms: _154  and  _155
REMARK   59  A    between atoms: _160  and  _162
REMARK   60  A    between atoms: _162  and  _163
REMARK   61  A    between atoms: _162  and  _165
REMARK   62  A    between atoms: _165  and  _166
REMARK   63  A    between atoms: _166  and  _167
REMARK   64  A    between atoms: _172  and  _174
REMARK   65  A    between atoms: _174  and  _175
REMARK   66  A    between atoms: _174  and  _177
REMARK   67  A    between atoms: _177  and  _178
REMARK   68  A    between atoms: _182  and  _183
REMARK   69  A    between atoms: _188  and  _190
REMARK   70  A    between atoms: _190  and  _191
REMARK   71  A    between atoms: _190  and  _193
REMARK   72  A    between atoms: _193  and  _194
REMARK   73  A    between atoms: _196  and  _198
REMARK   74  A    between atoms: _198  and  _199
REMARK   75  A    between atoms: _198  and  _201
REMARK   76  A    between atoms: _201  and  _202
REMARK   77  A    between atoms: _202  and  _203
REMARK   78  A    between atoms: _206  and  _208
REMARK   79  A    between atoms: _208  and  _209
REMARK   80  A    between atoms: _208  and  _211
REMARK   81  A    between atoms: _211  and  _212
REMARK   82  A    between atoms: _212  and  _213
REMARK   83  A    between atoms: _213  and  _214
REMARK   84  A    between atoms: _223  and  _225
REMARK   85  A    between atoms: _225  and  _226
REMARK   86  A    between atoms: _225  and  _228
REMARK   87  A    between atoms: _230  and  _232
REMARK   88  A    between atoms: _232  and  _233
REMARK   89  A    between atoms: _232  and  _235
REMARK   90  A    between atoms: _235  and  _236
REMARK   91  A    between atoms: _239  and  _241
REMARK   92  A    between atoms: _241  and  _242
REMARK   93  A    between atoms: _241  and  _244
REMARK   94  A    between atoms: _244  and  _245
REMARK   95  A    between atoms: _247  and  _249
REMARK   96  A    between atoms: _249  and  _250
REMARK   97  A    between atoms: _249  and  _252
REMARK   98  A    between atoms: _252  and  _253
REMARK   99  A    between atoms: _256  and  _258
REMARK  100  A    between atoms: _258  and  _259
REMARK  101  A    between atoms: _258  and  _261
REMARK  102  A    between atoms: _261  and  _262
REMARK  103  A    between atoms: _267  and  _268
REMARK  104  A    between atoms: _271  and  _272
REMARK  105  A    between atoms: _277  and  _279
REMARK  106  A    between atoms: _279  and  _280
REMARK  107  A    between atoms: _279  and  _282
REMARK  108  A    between atoms: _282  and  _283
REMARK  109  A    between atoms: _286  and  _288
REMARK  110  A    between atoms: _288  and  _289
REMARK  111  A    between atoms: _288  and  _291
REMARK  112  A    between atoms: _291  and  _292
REMARK  113  A    between atoms: _297  and  _299
REMARK  114  A    between atoms: _299  and  _300
REMARK  115  A    between atoms: _302  and  _304
REMARK  116  A    between atoms: _304  and  _305
REMARK  117  A    between atoms: _304  and  _307
REMARK  118  A    between atoms: _307  and  _308
REMARK  119  A    between atoms: _313  and  _315
REMARK  120  A    between atoms: _315  and  _316
REMARK  121  A    between atoms: _318  and  _320
REMARK  122  A    between atoms: _320  and  _321
REMARK  123  A    between atoms: _320  and  _323
REMARK  124  A    between atoms: _323  and  _324
REMARK                            x       y       z     vdW  Elec       q    Type
REMARK                         _______ _______ _______ _____ _____    ______ ____
ROOT
ATOM      1  O   HOH     1       8.102   7.595  18.320  0.00  0.00    +0.000 OA
ENDROOT
TORSDOF 0
REMARK  Name = ../refined-set-2016/2gss/2gss_pocket.pdb
REMARK  124 active torsions:
REMARK  status: ('A' for Active; 'I' for Inactive)
REMARK    1  A    between atoms: _1  and  _3
REMARK    2  A    between atoms: _3  and  _4
REMARK    3  A    between atoms: _3  and  _6
REMARK    4  A    between atoms: _6  and  _7
REMARK    5  A    between atoms: _12  and  _13
REMARK    6  A    between atoms: _15  and  _17
REMARK    7  A    between atoms: _17  and  _18
REMARK    8  A    between atoms: _17  and  _20
REMARK    9  A    between atoms: _20  and  _21
REMARK   10  A    between atoms: _28  and  _29
REMARK   11  A    between atoms: _34  and  _36
REMARK   12  A    between atoms: _36  and  _37
REMARK   13  A    between atoms: _36  and  _39
REMARK   14  A    between atoms: _42  and  _44
REMARK   15  A    between atoms: _44  and  _45
REMARK   16  A    between atoms: _44  and  _47
REMARK   17  A    between atoms: _47  and  _48
REMARK   18  A    between atoms: _48  and  _49
REMARK   19  A    between atoms: _49  and  _50
REMARK   20  A    between atoms: _59  and  _61
REMARK   21  A    between atoms: _61  and  _62
REMARK   22  A    between atoms: _64  and  _66
REMARK   23  A    between atoms: _66  and  _67
REMARK   24  A    between atoms: _66  and  _69
REMARK   25  A    between atoms: _69  and  _70
REMARK   26  A    between atoms: _70  and  _71
REMARK   27  A    between atoms: _71  and  _72
REMARK   28  A    between atoms: _81  and  _83
REMARK   29  A    between atoms: _83  and  _84
REMARK   30  A    between atoms: _83  and  _86
REMARK   31  A    between atoms: _88  and  _90
REMARK   32  A    between atoms: _90  and  _91
REMARK   33  A    between atoms: _90  and  _93
REMARK   34  A    between atoms: _96  and  _98
REMARK   35  A    between atoms: _98  and  _99
REMARK   36  A    between atoms: _98  and  _101
REMARK   37  A    between atoms: _101  and  _102
REMARK   38  A    between atoms: _105  and  _107
REMARK   39  A    between atoms: _107  and  _108
REMARK   40  A    between atoms: _107  and  _110
REMARK   41  A    between atoms: _113  and  _115
REMARK   42  A    between atoms: _115  and  _116
REMARK   43  A    between atoms: _115  and  _118
REMARK   44  A    between atoms: _118  and  _119
REMARK   45  A    between atoms: _119  and  _120
REMARK   46  A    between atoms: _123  and  _125
REMARK   47  A    between atoms: _125  and  _126
REMARK   48  A    between atoms: _125  and  _128
REMARK   49  A    between atoms: _128  and  _129
REMARK   50  A    between atoms: _132  and  _134
REMARK   51  A    between atoms: _134  and  _135
REMARK   52  A    between atoms: _134  and  _137
REMARK   53  A    between atoms: _137  and  _138
REMARK   54  A    between atoms: _148  and  _150
REMARK   55  A    between atoms: _150  and  _151
REMARK   56  A    between atoms: _150  and  _153
REMARK   57  A    between atoms: _153  and  _154
REMARK   58  A    between atoms: _154  and  _155
REMARK   59  A    between atoms: _160  and  _162
REMARK   60  A    between atoms: _162  and  _163
REMARK   61  A    between atoms: _162  and  _165
REMARK   62  A    between atoms: _165  and  _166
REMARK   63  A    between atoms: _166  and  _167
REMARK   64  A    between atoms: _172  and  _174
REMARK   65  A    between atoms: _174  and  _175
REMARK   66  A    between atoms: _174  and  _177
REMARK   67  A    between atoms: _177  and  _178
REMARK   68  A    between atoms: _182  and  _183
REMARK   69  A    between atoms: _188  and  _190
REMARK   70  A    between atoms: _190  and  _191
REMARK   71  A    between atoms: _190  and  _193
REMARK   72  A    between atoms: _193  and  _194
REMARK   73  A    between atoms: _196  and  _198
REMARK   74  A    between atoms: _198  and  _199
REMARK   75  A    between atoms: _198  and  _201
REMARK   76  A    between atoms: _201  and  _202
REMARK   77  A    between atoms: _202  and  _203
REMARK   78  A    between atoms: _206  and  _208
REMARK   79  A    between atoms: _208  and  _209
REMARK   80  A    between atoms: _208  and  _211
REMARK   81  A    between atoms: _211  and  _212
REMARK   82  A    between atoms: _212  and  _213
REMARK   83  A    between atoms: _213  and  _214
REMARK   84  A    between atoms: _223  and  _225
REMARK   85  A    between atoms: _225  and  _226
REMARK   86  A    between atoms: _225  and  _228
REMARK   87  A    between atoms: _230  and  _232
REMARK   88  A    between atoms: _232  and  _233
REMARK   89  A    between atoms: _232  and  _235
REMARK   90  A    between atoms: _235  and  _236
REMARK   91  A    between atoms: _239  and  _241
REMARK   92  A    between atoms: _241  and  _242
REMARK   93  A    between atoms: _241  and  _244
REMARK   94  A    between atoms: _244  and  _245
REMARK   95  A    between atoms: _247  and  _249
REMARK   96  A    between atoms: _249  and  _250
REMARK   97  A    between atoms: _249  and  _252
REMARK   98  A    between atoms: _252  and  _253
REMARK   99  A    between atoms: _256  and  _258
REMARK  100  A    between atoms: _258  and  _259
REMARK  101  A    between atoms: _258  and  _261
REMARK  102  A    between atoms: _261  and  _262
REMARK  103  A    between atoms: _267  and  _268
REMARK  104  A    between atoms: _271  and  _272
REMARK  105  A    between atoms: _277  and  _279
REMARK  106  A    between atoms: _279  and  _280
REMARK  107  A    between atoms: _279  and  _282
REMARK  108  A    between atoms: _282  and  _283
REMARK  109  A    between atoms: _286  and  _288
REMARK  110  A    between atoms: _288  and  _289
REMARK  111  A    between atoms: _288  and  _291
REMARK  112  A    between atoms: _291  and  _292
REMARK  113  A    between atoms: _297  and  _299
REMARK  114  A    between atoms: _299  and  _300
REMARK  115  A    between atoms: _302  and  _304
REMARK  116  A    between atoms: _304  and  _305
REMARK  117  A    between atoms: _304  and  _307
REMARK  118  A    between atoms: _307  and  _308
REMARK  119  A    between atoms: _313  and  _315
REMARK  120  A    between atoms: _315  and  _316
REMARK  121  A    between atoms: _318  and  _320
REMARK  122  A    between atoms: _320  and  _321
REMARK  123  A    between atoms: _320  and  _323
REMARK  124  A    between atoms: _323  and  _324
REMARK                            x       y       z     vdW  Elec       q    Type
REMARK                         _______ _______ _______ _____ _____    ______ ____
ROOT
ATOM      1  O   HOH     1       5.210  -5.569  27.358  0.00  0.00    +0.000 OA
ENDROOT
TORSDOF 0
REMARK  Name = ../refined-set-2016/2gss/2gss_pocket.pdb
REMARK  124 active torsions:
REMARK  status: ('A' for Active; 'I' for Inactive)
REMARK    1  A    between atoms: _1  and  _3
REMARK    2  A    between atoms: _3  and  _4
REMARK    3  A    between atoms: _3  and  _6
REMARK    4  A    between atoms: _6  and  _7
REMARK    5  A    between atoms: _12  and  _13
REMARK    6  A    between atoms: _15  and  _17
REMARK    7  A    between atoms: _17  and  _18
REMARK    8  A    between atoms: _17  and  _20
REMARK    9  A    between atoms: _20  and  _21
REMARK   10  A    between atoms: _28  and  _29
REMARK   11  A    between atoms: _34  and  _36
REMARK   12  A    between atoms: _36  and  _37
REMARK   13  A    between atoms: _36  and  _39
REMARK   14  A    between atoms: _42  and  _44
REMARK   15  A    between atoms: _44  and  _45
REMARK   16  A    between atoms: _44  and  _47
REMARK   17  A    between atoms: _47  and  _48
REMARK   18  A    between atoms: _48  and  _49
REMARK   19  A    between atoms: _49  and  _50
REMARK   20  A    between atoms: _59  and  _61
REMARK   21  A    between atoms: _61  and  _62
REMARK   22  A    between atoms: _64  and  _66
REMARK   23  A    between atoms: _66  and  _67
REMARK   24  A    between atoms: _66  and  _69
REMARK   25  A    between atoms: _69  and  _70
REMARK   26  A    between atoms: _70  and  _71
REMARK   27  A    between atoms: _71  and  _72
REMARK   28  A    between atoms: _81  and  _83
REMARK   29  A    between atoms: _83  and  _84
REMARK   30  A    between atoms: _83  and  _86
REMARK   31  A    between atoms: _88  and  _90
REMARK   32  A    between atoms: _90  and  _91
REMARK   33  A    between atoms: _90  and  _93
REMARK   34  A    between atoms: _96  and  _98
REMARK   35  A    between atoms: _98  and  _99
REMARK   36  A    between atoms: _98  and  _101
REMARK   37  A    between atoms: _101  and  _102
REMARK   38  A    between atoms: _105  and  _107
REMARK   39  A    between atoms: _107  and  _108
REMARK   40  A    between atoms: _107  and  _110
REMARK   41  A    between atoms: _113  and  _115
REMARK   42  A    between atoms: _115  and  _116
REMARK   43  A    between atoms: _115  and  _118
REMARK   44  A    between atoms: _118  and  _119
REMARK   45  A    between atoms: _119  and  _120
REMARK   46  A    between atoms: _123  and  _125
REMARK   47  A    between atoms: _125  and  _126
REMARK   48  A    between atoms: _125  and  _128
REMARK   49  A    between atoms: _128  and  _129
REMARK   50  A    between atoms: _132  and  _134
REMARK   51  A    between atoms: _134  and  _135
REMARK   52  A    between atoms: _134  and  _137
REMARK   53  A    between atoms: _137  and  _138
REMARK   54  A    between atoms: _148  and  _150
REMARK   55  A    between atoms: _150  and  _151
REMARK   56  A    between atoms: _150  and  _153
REMARK   57  A    between atoms: _153  and  _154
REMARK   58  A    between atoms: _154  and  _155
REMARK   59  A    between atoms: _160  and  _162
REMARK   60  A    between atoms: _162  and  _163
REMARK   61  A    between atoms: _162  and  _165
REMARK   62  A    between atoms: _165  and  _166
REMARK   63  A    between atoms: _166  and  _167
REMARK   64  A    between atoms: _172  and  _174
REMARK   65  A    between atoms: _174  and  _175
REMARK   66  A    between atoms: _174  and  _177
REMARK   67  A    between atoms: _177  and  _178
REMARK   68  A    between atoms: _182  and  _183
REMARK   69  A    between atoms: _188  and  _190
REMARK   70  A    between atoms: _190  and  _191
REMARK   71  A    between atoms: _190  and  _193
REMARK   72  A    between atoms: _193  and  _194
REMARK   73  A    between atoms: _196  and  _198
REMARK   74  A    between atoms: _198  and  _199
REMARK   75  A    between atoms: _198  and  _201
REMARK   76  A    between atoms: _201  and  _202
REMARK   77  A    between atoms: _202  and  _203
REMARK   78  A    between atoms: _206  and  _208
REMARK   79  A    between atoms: _208  and  _209
REMARK   80  A    between atoms: _208  and  _211
REMARK   81  A    between atoms: _211  and  _212
REMARK   82  A    between atoms: _212  and  _213
REMARK   83  A    between atoms: _213  and  _214
REMARK   84  A    between atoms: _223  and  _225
REMARK   85  A    between atoms: _225  and  _226
REMARK   86  A    between atoms: _225  and  _228
REMARK   87  A    between atoms: _230  and  _232
REMARK   88  A    between atoms: _232  and  _233
REMARK   89  A    between atoms: _232  and  _235
REMARK   90  A    between atoms: _235  and  _236
REMARK   91  A    between atoms: _239  and  _241
REMARK   92  A    between atoms: _241  and  _242
REMARK   93  A    between atoms: _241  and  _244
REMARK   94  A    between atoms: _244  and  _245
REMARK   95  A    between atoms: _247  and  _249
REMARK   96  A    between atoms: _249  and  _250
REMARK   97  A    between atoms: _249  and  _252
REMARK   98  A    between atoms: _252  and  _253
REMARK   99  A    between atoms: _256  and  _258
REMARK  100  A    between atoms: _258  and  _259
REMARK  101  A    between atoms: _258  and  _261
REMARK  102  A    between atoms: _261  and  _262
REMARK  103  A    between atoms: _267  and  _268
REMARK  104  A    between atoms: _271  and  _272
REMARK  105  A    between atoms: _277  and  _279
REMARK  106  A    between atoms: _279  and  _280
REMARK  107  A    between atoms: _279  and  _282
REMARK  108  A    between atoms: _282  and  _283
REMARK  109  A    between atoms: _286  and  _288
REMARK  110  A    between atoms: _288  and  _289
REMARK  111  A    between atoms: _288  and  _291
REMARK  112  A    between atoms: _291  and  _292
REMARK  113  A    between atoms: _297  and  _299
REMARK  114  A    between atoms: _299  and  _300
REMARK  115  A    between atoms: _302  and  _304
REMARK  116  A    between atoms: _304  and  _305
REMARK  117  A    between atoms: _304  and  _307
REMARK  118  A    between atoms: _307  and  _308
REMARK  119  A    between atoms: _313  and  _315
REMARK  120  A    between atoms: _315  and  _316
REMARK  121  A    between atoms: _318  and  _320
REMARK  122  A    between atoms: _320  and  _321
REMARK  123  A    between atoms: _320  and  _323
REMARK  124  A    between atoms: _323  and  _324
REMARK                            x       y       z     vdW  Elec       q    Type
REMARK                         _______ _______ _______ _____ _____    ______ ____
ROOT
ATOM      1  O   HOH     1      11.562  11.669  18.947  0.00  0.00    +0.000 OA
ENDROOT
TORSDOF 0
REMARK  Name = ../refined-set-2016/2gss/2gss_pocket.pdb
REMARK  124 active torsions:
REMARK  status: ('A' for Active; 'I' for Inactive)
REMARK    1  A    between atoms: _1  and  _3
REMARK    2  A    between atoms: _3  and  _4
REMARK    3  A    between atoms: _3  and  _6
REMARK    4  A    between atoms: _6  and  _7
REMARK    5  A    between atoms: _12  and  _13
REMARK    6  A    between atoms: _15  and  _17
REMARK    7  A    between atoms: _17  and  _18
REMARK    8  A    between atoms: _17  and  _20
REMARK    9  A    between atoms: _20  and  _21
REMARK   10  A    between atoms: _28  and  _29
REMARK   11  A    between atoms: _34  and  _36
REMARK   12  A    between atoms: _36  and  _37
REMARK   13  A    between atoms: _36  and  _39
REMARK   14  A    between atoms: _42  and  _44
REMARK   15  A    between atoms: _44  and  _45
REMARK   16  A    between atoms: _44  and  _47
REMARK   17  A    between atoms: _47  and  _48
REMARK   18  A    between atoms: _48  and  _49
REMARK   19  A    between atoms: _49  and  _50
REMARK   20  A    between atoms: _59  and  _61
REMARK   21  A    between atoms: _61  and  _62
REMARK   22  A    between atoms: _64  and  _66
REMARK   23  A    between atoms: _66  and  _67
REMARK   24  A    between atoms: _66  and  _69
REMARK   25  A    between atoms: _69  and  _70
REMARK   26  A    between atoms: _70  and  _71
REMARK   27  A    between atoms: _71  and  _72
REMARK   28  A    between atoms: _81  and  _83
REMARK   29  A    between atoms: _83  and  _84
REMARK   30  A    between atoms: _83  and  _86
REMARK   31  A    between atoms: _88  and  _90
REMARK   32  A    between atoms: _90  and  _91
REMARK   33  A    between atoms: _90  and  _93
REMARK   34  A    between atoms: _96  and  _98
REMARK   35  A    between atoms: _98  and  _99
REMARK   36  A    between atoms: _98  and  _101
REMARK   37  A    between atoms: _101  and  _102
REMARK   38  A    between atoms: _105  and  _107
REMARK   39  A    between atoms: _107  and  _108
REMARK   40  A    between atoms: _107  and  _110
REMARK   41  A    between atoms: _113  and  _115
REMARK   42  A    between atoms: _115  and  _116
REMARK   43  A    between atoms: _115  and  _118
REMARK   44  A    between atoms: _118  and  _119
REMARK   45  A    between atoms: _119  and  _120
REMARK   46  A    between atoms: _123  and  _125
REMARK   47  A    between atoms: _125  and  _126
REMARK   48  A    between atoms: _125  and  _128
REMARK   49  A    between atoms: _128  and  _129
REMARK   50  A    between atoms: _132  and  _134
REMARK   51  A    between atoms: _134  and  _135
REMARK   52  A    between atoms: _134  and  _137
REMARK   53  A    between atoms: _137  and  _138
REMARK   54  A    between atoms: _148  and  _150
REMARK   55  A    between atoms: _150  and  _151
REMARK   56  A    between atoms: _150  and  _153
REMARK   57  A    between atoms: _153  and  _154
REMARK   58  A    between atoms: _154  and  _155
REMARK   59  A    between atoms: _160  and  _162
REMARK   60  A    between atoms: _162  and  _163
REMARK   61  A    between atoms: _162  and  _165
REMARK   62  A    between atoms: _165  and  _166
REMARK   63  A    between atoms: _166  and  _167
REMARK   64  A    between atoms: _172  and  _174
REMARK   65  A    between atoms: _174  and  _175
REMARK   66  A    between atoms: _174  and  _177
REMARK   67  A    between atoms: _177  and  _178
REMARK   68  A    between atoms: _182  and  _183
REMARK   69  A    between atoms: _188  and  _190
REMARK   70  A    between atoms: _190  and  _191
REMARK   71  A    between atoms: _190  and  _193
REMARK   72  A    between atoms: _193  and  _194
REMARK   73  A    between atoms: _196  and  _198
REMARK   74  A    between atoms: _198  and  _199
REMARK   75  A    between atoms: _198  and  _201
REMARK   76  A    between atoms: _201  and  _202
REMARK   77  A    between atoms: _202  and  _203
REMARK   78  A    between atoms: _206  and  _208
REMARK   79  A    between atoms: _208  and  _209
REMARK   80  A    between atoms: _208  and  _211
REMARK   81  A    between atoms: _211  and  _212
REMARK   82  A    between atoms: _212  and  _213
REMARK   83  A    between atoms: _213  and  _214
REMARK   84  A    between atoms: _223  and  _225
REMARK   85  A    between atoms: _225  and  _226
REMARK   86  A    between atoms: _225  and  _228
REMARK   87  A    between atoms: _230  and  _232
REMARK   88  A    between atoms: _232  and  _233
REMARK   89  A    between atoms: _232  and  _235
REMARK   90  A    between atoms: _235  and  _236
REMARK   91  A    between atoms: _239  and  _241
REMARK   92  A    between atoms: _241  and  _242
REMARK   93  A    between atoms: _241  and  _244
REMARK   94  A    between atoms: _244  and  _245
REMARK   95  A    between atoms: _247  and  _249
REMARK   96  A    between atoms: _249  and  _250
REMARK   97  A    between atoms: _249  and  _252
REMARK   98  A    between atoms: _252  and  _253
REMARK   99  A    between atoms: _256  and  _258
REMARK  100  A    between atoms: _258  and  _259
REMARK  101  A    between atoms: _258  and  _261
REMARK  102  A    between atoms: _261  and  _262
REMARK  103  A    between atoms: _267  and  _268
REMARK  104  A    between atoms: _271  and  _272
REMARK  105  A    between atoms: _277  and  _279
REMARK  106  A    between atoms: _279  and  _280
REMARK  107  A    between atoms: _279  and  _282
REMARK  108  A    between atoms: _282  and  _283
REMARK  109  A    between atoms: _286  and  _288
REMARK  110  A    between atoms: _288  and  _289
REMARK  111  A    between atoms: _288  and  _291
REMARK  112  A    between atoms: _291  and  _292
REMARK  113  A    between atoms: _297  and  _299
REMARK  114  A    between atoms: _299  and  _300
REMARK  115  A    between atoms: _302  and  _304
REMARK  116  A    between atoms: _304  and  _305
REMARK  117  A    between atoms: _304  and  _307
REMARK  118  A    between atoms: _307  and  _308
REMARK  119  A    between atoms: _313  and  _315
REMARK  120  A    between atoms: _315  and  _316
REMARK  121  A    between atoms: _318  and  _320
REMARK  122  A    between atoms: _320  and  _321
REMARK  123  A    between atoms: _320  and  _323
REMARK  124  A    between atoms: _323  and  _324
REMARK                            x       y       z     vdW  Elec       q    Type
REMARK                         _______ _______ _______ _____ _____    ______ ____
ROOT
ATOM      1  O   HOH     1       9.741  12.899  22.418  0.00  0.00    +0.000 OA
ENDROOT
TORSDOF 0
