REMARK  Name = ../refined-set-2016/4q7p/4q7p_pocket.pdb
REMARK  140 active torsions:
REMARK  status: ('A' for Active; 'I' for Inactive)
REMARK    1  A    between atoms: _1  and  _3
REMARK    2  A    between atoms: _3  and  _4
REMARK    3  A    between atoms: _3  and  _6
REMARK    4  A    between atoms: _6  and  _7
REMARK    5  A    between atoms: _17  and  _19
REMARK    6  A    between atoms: _19  and  _20
REMARK    7  A    between atoms: _19  and  _22
REMARK    8  A    between atoms: _22  and  _23
REMARK    9  A    between atoms: _28  and  _29
REMARK   10  A    between atoms: _31  and  _33
REMARK   11  A    between atoms: _33  and  _34
REMARK   12  A    between atoms: _33  and  _36
REMARK   13  A    between atoms: _36  and  _37
REMARK   14  A    between atoms: _39  and  _41
REMARK   15  A    between atoms: _41  and  _42
REMARK   16  A    between atoms: _41  and  _44
REMARK   17  A    between atoms: _44  and  _45
REMARK   18  A    between atoms: _50  and  _52
REMARK   19  A    between atoms: _52  and  _53
REMARK   20  A    between atoms: _52  and  _55
REMARK   21  A    between atoms: _55  and  _56
REMARK   22  A    between atoms: _61  and  _63
REMARK   23  A    between atoms: _63  and  _64
REMARK   24  A    between atoms: _67  and  _69
REMARK   25  A    between atoms: _69  and  _70
REMARK   26  A    between atoms: _69  and  _72
REMARK   27  A    between atoms: _72  and  _73
REMARK   28  A    between atoms: _78  and  _80
REMARK   29  A    between atoms: _80  and  _81
REMARK   30  A    between atoms: _80  and  _83
REMARK   31  A    between atoms: _83  and  _84
REMARK   32  A    between atoms: _87  and  _89
REMARK   33  A    between atoms: _89  and  _90
REMARK   34  A    between atoms: _89  and  _92
REMARK   35  A    between atoms: _92  and  _93
REMARK   36  A    between atoms: _93  and  _94
REMARK   37  A    between atoms: _99  and  _101
REMARK   38  A    between atoms: _112  and  _115
REMARK   39  A    between atoms: _115  and  _116
REMARK   40  A    between atoms: _124  and  _125
REMARK   41  A    between atoms: _133  and  _135
REMARK   42  A    between atoms: _135  and  _136
REMARK   43  A    between atoms: _135  and  _138
REMARK   44  A    between atoms: _138  and  _139
REMARK   45  A    between atoms: _139  and  _140
REMARK   46  A    between atoms: _143  and  _145
REMARK   47  A    between atoms: _145  and  _146
REMARK   48  A    between atoms: _145  and  _148
REMARK   49  A    between atoms: _148  and  _149
REMARK   50  A    between atoms: _154  and  _156
REMARK   51  A    between atoms: _156  and  _157
REMARK   52  A    between atoms: _156  and  _159
REMARK   53  A    between atoms: _159  and  _160
REMARK   54  A    between atoms: _160  and  _161
REMARK   55  A    between atoms: _164  and  _166
REMARK   56  A    between atoms: _166  and  _167
REMARK   57  A    between atoms: _166  and  _169
REMARK   58  A    between atoms: _169  and  _170
REMARK   59  A    between atoms: _173  and  _175
REMARK   60  A    between atoms: _175  and  _176
REMARK   61  A    between atoms: _175  and  _178
REMARK   62  A    between atoms: _178  and  _179
REMARK   63  A    between atoms: _180  and  ZN_390
REMARK   64  A    between atoms: _184  and  _186
REMARK   65  A    between atoms: _186  and  _187
REMARK   66  A    between atoms: _186  and  _189
REMARK   67  A    between atoms: _189  and  _190
REMARK   68  A    between atoms: _193  and  _195
REMARK   69  A    between atoms: _195  and  _196
REMARK   70  A    between atoms: _195  and  _198
REMARK   71  A    between atoms: _201  and  _203
REMARK   72  A    between atoms: _203  and  _204
REMARK   73  A    between atoms: _203  and  _206
REMARK   74  A    between atoms: _206  and  _207
REMARK   75  A    between atoms: _212  and  _214
REMARK   76  A    between atoms: _214  and  _215
REMARK   77  A    between atoms: _214  and  _217
REMARK   78  A    between atoms: _217  and  _218
REMARK   79  A    between atoms: _224  and  _226
REMARK   80  A    between atoms: _226  and  _227
REMARK   81  A    between atoms: _226  and  _229
REMARK   82  A    between atoms: _232  and  _234
REMARK   83  A    between atoms: _234  and  _235
REMARK   84  A    between atoms: _234  and  _237
REMARK   85  A    between atoms: _237  and  _238
REMARK   86  A    between atoms: _241  and  _243
REMARK   87  A    between atoms: _243  and  _244
REMARK   88  A    between atoms: _247  and  _249
REMARK   89  A    between atoms: _249  and  _250
REMARK   90  A    between atoms: _249  and  _252
REMARK   91  A    between atoms: _255  and  _257
REMARK   92  A    between atoms: _257  and  _258
REMARK   93  A    between atoms: _257  and  _260
REMARK   94  A    between atoms: _260  and  _261
REMARK   95  A    between atoms: _264  and  _266
REMARK   96  A    between atoms: _266  and  _267
REMARK   97  A    between atoms: _266  and  _269
REMARK   98  A    between atoms: _269  and  _270
REMARK   99  A    between atoms: _272  and  _274
REMARK  100  A    between atoms: _274  and  _275
REMARK  101  A    between atoms: _274  and  _277
REMARK  102  A    between atoms: _277  and  _278
REMARK  103  A    between atoms: _281  and  _283
REMARK  104  A    between atoms: _283  and  _284
REMARK  105  A    between atoms: _283  and  _286
REMARK  106  A    between atoms: _286  and  _287
REMARK  107  A    between atoms: _290  and  _292
REMARK  108  A    between atoms: _292  and  _293
REMARK  109  A    between atoms: _292  and  _295
REMARK  110  A    between atoms: _295  and  _296
REMARK  111  A    between atoms: _300  and  _301
REMARK  112  A    between atoms: _307  and  _308
REMARK  113  A    between atoms: _313  and  _315
REMARK  114  A    between atoms: _315  and  _316
REMARK  115  A    between atoms: _315  and  _318
REMARK  116  A    between atoms: _318  and  _319
REMARK  117  A    between atoms: _322  and  _324
REMARK  118  A    between atoms: _324  and  _325
REMARK  119  A    between atoms: _324  and  _327
REMARK  120  A    between atoms: _327  and  _328
REMARK  121  A    between atoms: _331  and  _333
REMARK  122  A    between atoms: _333  and  _334
REMARK  123  A    between atoms: _333  and  _336
REMARK  124  A    between atoms: _338  and  _340
REMARK  125  A    between atoms: _340  and  _341
REMARK  126  A    between atoms: _340  and  _343
REMARK  127  A    between atoms: _346  and  _348
REMARK  128  A    between atoms: _348  and  _349
REMARK  129  A    between atoms: _348  and  _351
REMARK  130  A    between atoms: _351  and  _352
REMARK  131  A    between atoms: _362  and  _364
REMARK  132  A    between atoms: _364  and  _365
REMARK  133  A    between atoms: _364  and  _367
REMARK  134  A    between atoms: _367  and  _368
REMARK  135  A    between atoms: _373  and  _375
REMARK  136  A    between atoms: _375  and  _376
REMARK  137  A    between atoms: _375  and  _378
REMARK  138  A    between atoms: _378  and  _379
REMARK  139  A    between atoms: _379  and  _380
REMARK  140  A    between atoms: _380  and  _381
REMARK                            x       y       z     vdW  Elec       q    Type
REMARK                         _______ _______ _______ _____ _____    ______ ____
ROOT
ATOM      1  CG  TRP A   1      26.793  -0.203  12.088  0.00  0.00    -0.002 A 
ATOM      2  CD2 TRP A   1      25.460  -0.682  12.031  0.00  0.00    +0.013 A 
ATOM      3  CE3 TRP A   1      24.883  -1.945  12.247  0.00  0.00    +0.001 A 
ATOM      4  CZ3 TRP A   1      23.466  -2.060  12.102  0.00  0.00    +0.000 A 
ATOM      5  CH2 TRP A   1      22.690  -0.975  11.746  0.00  0.00    +0.001 A 
ATOM      6  CZ2 TRP A   1      23.249   0.238  11.509  0.00  0.00    +0.017 A 
ATOM      7  CE2 TRP A   1      24.631   0.387  11.663  0.00  0.00    +0.056 A 
ATOM      8  NE1 TRP A   1      25.426   1.499  11.468  0.00  0.00    -0.352 N 
ATOM      9  HE1 TRP A   1      25.095   2.438  11.168  0.00  0.00    +0.166 HD
ATOM     10  CD1 TRP A   1      26.726   1.156  11.737  0.00  0.00    +0.068 A 
ENDROOT
BRANCH   1  11
ATOM     11  CB  TRP A   1      28.034  -1.021  12.467  0.00  0.00    +0.053 C 
BRANCH  11  12
ATOM     12  CA  TRP A   1      28.737  -1.678  11.275  0.00  0.00    +0.137 C 
BRANCH  12  13
ATOM     13  N   TRP A   1      29.439  -0.659  10.478  0.00  0.00    -0.239 NA
ATOM     14  H   TRP A   1      29.229   0.352  10.601  0.00  0.00    +0.142 HD
ENDBRANCH  12  13
BRANCH  12  15
ATOM     15  C   TRP A   1      27.738  -2.487  10.477  0.00  0.00    +0.224 C 
ATOM     16  O   TRP A   1      27.122  -2.030   9.467  0.00  0.00    -0.287 OA
ENDBRANCH  12  15
ENDBRANCH  11  12
ENDBRANCH   1  11
TORSDOF 4
REMARK  Name = ../refined-set-2016/4q7p/4q7p_pocket.pdb
REMARK  140 active torsions:
REMARK  status: ('A' for Active; 'I' for Inactive)
REMARK    1  A    between atoms: _1  and  _3
REMARK    2  A    between atoms: _3  and  _4
REMARK    3  A    between atoms: _3  and  _6
REMARK    4  A    between atoms: _6  and  _7
REMARK    5  A    between atoms: _17  and  _19
REMARK    6  A    between atoms: _19  and  _20
REMARK    7  A    between atoms: _19  and  _22
REMARK    8  A    between atoms: _22  and  _23
REMARK    9  A    between atoms: _28  and  _29
REMARK   10  A    between atoms: _31  and  _33
REMARK   11  A    between atoms: _33  and  _34
REMARK   12  A    between atoms: _33  and  _36
REMARK   13  A    between atoms: _36  and  _37
REMARK   14  A    between atoms: _39  and  _41
REMARK   15  A    between atoms: _41  and  _42
REMARK   16  A    between atoms: _41  and  _44
REMARK   17  A    between atoms: _44  and  _45
REMARK   18  A    between atoms: _50  and  _52
REMARK   19  A    between atoms: _52  and  _53
REMARK   20  A    between atoms: _52  and  _55
REMARK   21  A    between atoms: _55  and  _56
REMARK   22  A    between atoms: _61  and  _63
REMARK   23  A    between atoms: _63  and  _64
REMARK   24  A    between atoms: _67  and  _69
REMARK   25  A    between atoms: _69  and  _70
REMARK   26  A    between atoms: _69  and  _72
REMARK   27  A    between atoms: _72  and  _73
REMARK   28  A    between atoms: _78  and  _80
REMARK   29  A    between atoms: _80  and  _81
REMARK   30  A    between atoms: _80  and  _83
REMARK   31  A    between atoms: _83  and  _84
REMARK   32  A    between atoms: _87  and  _89
REMARK   33  A    between atoms: _89  and  _90
REMARK   34  A    between atoms: _89  and  _92
REMARK   35  A    between atoms: _92  and  _93
REMARK   36  A    between atoms: _93  and  _94
REMARK   37  A    between atoms: _99  and  _101
REMARK   38  A    between atoms: _112  and  _115
REMARK   39  A    between atoms: _115  and  _116
REMARK   40  A    between atoms: _124  and  _125
REMARK   41  A    between atoms: _133  and  _135
REMARK   42  A    between atoms: _135  and  _136
REMARK   43  A    between atoms: _135  and  _138
REMARK   44  A    between atoms: _138  and  _139
REMARK   45  A    between atoms: _139  and  _140
REMARK   46  A    between atoms: _143  and  _145
REMARK   47  A    between atoms: _145  and  _146
REMARK   48  A    between atoms: _145  and  _148
REMARK   49  A    between atoms: _148  and  _149
REMARK   50  A    between atoms: _154  and  _156
REMARK   51  A    between atoms: _156  and  _157
REMARK   52  A    between atoms: _156  and  _159
REMARK   53  A    between atoms: _159  and  _160
REMARK   54  A    between atoms: _160  and  _161
REMARK   55  A    between atoms: _164  and  _166
REMARK   56  A    between atoms: _166  and  _167
REMARK   57  A    between atoms: _166  and  _169
REMARK   58  A    between atoms: _169  and  _170
REMARK   59  A    between atoms: _173  and  _175
REMARK   60  A    between atoms: _175  and  _176
REMARK   61  A    between atoms: _175  and  _178
REMARK   62  A    between atoms: _178  and  _179
REMARK   63  A    between atoms: _180  and  ZN_390
REMARK   64  A    between atoms: _184  and  _186
REMARK   65  A    between atoms: _186  and  _187
REMARK   66  A    between atoms: _186  and  _189
REMARK   67  A    between atoms: _189  and  _190
REMARK   68  A    between atoms: _193  and  _195
REMARK   69  A    between atoms: _195  and  _196
REMARK   70  A    between atoms: _195  and  _198
REMARK   71  A    between atoms: _201  and  _203
REMARK   72  A    between atoms: _203  and  _204
REMARK   73  A    between atoms: _203  and  _206
REMARK   74  A    between atoms: _206  and  _207
REMARK   75  A    between atoms: _212  and  _214
REMARK   76  A    between atoms: _214  and  _215
REMARK   77  A    between atoms: _214  and  _217
REMARK   78  A    between atoms: _217  and  _218
REMARK   79  A    between atoms: _224  and  _226
REMARK   80  A    between atoms: _226  and  _227
REMARK   81  A    between atoms: _226  and  _229
REMARK   82  A    between atoms: _232  and  _234
REMARK   83  A    between atoms: _234  and  _235
REMARK   84  A    between atoms: _234  and  _237
REMARK   85  A    between atoms: _237  and  _238
REMARK   86  A    between atoms: _241  and  _243
REMARK   87  A    between atoms: _243  and  _244
REMARK   88  A    between atoms: _247  and  _249
REMARK   89  A    between atoms: _249  and  _250
REMARK   90  A    between atoms: _249  and  _252
REMARK   91  A    between atoms: _255  and  _257
REMARK   92  A    between atoms: _257  and  _258
REMARK   93  A    between atoms: _257  and  _260
REMARK   94  A    between atoms: _260  and  _261
REMARK   95  A    between atoms: _264  and  _266
REMARK   96  A    between atoms: _266  and  _267
REMARK   97  A    between atoms: _266  and  _269
REMARK   98  A    between atoms: _269  and  _270
REMARK   99  A    between atoms: _272  and  _274
REMARK  100  A    between atoms: _274  and  _275
REMARK  101  A    between atoms: _274  and  _277
REMARK  102  A    between atoms: _277  and  _278
REMARK  103  A    between atoms: _281  and  _283
REMARK  104  A    between atoms: _283  and  _284
REMARK  105  A    between atoms: _283  and  _286
REMARK  106  A    between atoms: _286  and  _287
REMARK  107  A    between atoms: _290  and  _292
REMARK  108  A    between atoms: _292  and  _293
REMARK  109  A    between atoms: _292  and  _295
REMARK  110  A    between atoms: _295  and  _296
REMARK  111  A    between atoms: _300  and  _301
REMARK  112  A    between atoms: _307  and  _308
REMARK  113  A    between atoms: _313  and  _315
REMARK  114  A    between atoms: _315  and  _316
REMARK  115  A    between atoms: _315  and  _318
REMARK  116  A    between atoms: _318  and  _319
REMARK  117  A    between atoms: _322  and  _324
REMARK  118  A    between atoms: _324  and  _325
REMARK  119  A    between atoms: _324  and  _327
REMARK  120  A    between atoms: _327  and  _328
REMARK  121  A    between atoms: _331  and  _333
REMARK  122  A    between atoms: _333  and  _334
REMARK  123  A    between atoms: _333  and  _336
REMARK  124  A    between atoms: _338  and  _340
REMARK  125  A    between atoms: _340  and  _341
REMARK  126  A    between atoms: _340  and  _343
REMARK  127  A    between atoms: _346  and  _348
REMARK  128  A    between atoms: _348  and  _349
REMARK  129  A    between atoms: _348  and  _351
REMARK  130  A    between atoms: _351  and  _352
REMARK  131  A    between atoms: _362  and  _364
REMARK  132  A    between atoms: _364  and  _365
REMARK  133  A    between atoms: _364  and  _367
REMARK  134  A    between atoms: _367  and  _368
REMARK  135  A    between atoms: _373  and  _375
REMARK  136  A    between atoms: _375  and  _376
REMARK  137  A    between atoms: _375  and  _378
REMARK  138  A    between atoms: _378  and  _379
REMARK  139  A    between atoms: _379  and  _380
REMARK  140  A    between atoms: _380  and  _381
REMARK                            x       y       z     vdW  Elec       q    Type
REMARK                         _______ _______ _______ _____ _____    ______ ____
ROOT
ATOM      1  CG  TYR A   1      23.084  -7.364  11.863  0.00  0.00    -0.020 A 
ATOM      2  CD2 TYR A   1      22.677  -7.372  13.209  0.00  0.00    -0.001 A 
ATOM      3  CE2 TYR A   1      21.831  -6.328  13.664  0.00  0.00    +0.036 A 
ATOM      4  CZ  TYR A   1      21.380  -5.373  12.775  0.00  0.00    +0.134 A 
ATOM      5  CE1 TYR A   1      21.793  -5.333  11.430  0.00  0.00    +0.036 A 
ATOM      6  CD1 TYR A   1      22.630  -6.345  11.014  0.00  0.00    -0.001 A 
ENDROOT
BRANCH   4   7
ATOM      7  OH  TYR A   1      20.552  -4.370  13.194  0.00  0.00    -0.506 OA
ATOM      8  HH  TYR A   1      20.331  -4.504  14.150  0.00  0.00    +0.292 HD
ENDBRANCH   4   7
BRANCH   1   9
ATOM      9  CB  TYR A   1      24.012  -8.450  11.334  0.00  0.00    +0.051 C 
BRANCH   9  10
ATOM     10  CA  TYR A   1      25.492  -8.074  11.548  0.00  0.00    +0.137 C 
BRANCH  10  11
ATOM     11  N   TYR A   1      25.868  -6.937  10.694  0.00  0.00    -0.239 NA
ATOM     12  H   TYR A   1      25.926  -7.056   9.662  0.00  0.00    +0.142 HD
ENDBRANCH  10  11
BRANCH  10  13
ATOM     13  C   TYR A   1      26.372  -9.275  11.265  0.00  0.00    +0.224 C 
ATOM     14  O   TYR A   1      26.041 -10.390  11.696  0.00  0.00    -0.287 OA
ENDBRANCH  10  13
ENDBRANCH   9  10
ENDBRANCH   1   9
TORSDOF 5
REMARK  Name = ../refined-set-2016/4q7p/4q7p_pocket.pdb
REMARK  140 active torsions:
REMARK  status: ('A' for Active; 'I' for Inactive)
REMARK    1  A    between atoms: _1  and  _3
REMARK    2  A    between atoms: _3  and  _4
REMARK    3  A    between atoms: _3  and  _6
REMARK    4  A    between atoms: _6  and  _7
REMARK    5  A    between atoms: _17  and  _19
REMARK    6  A    between atoms: _19  and  _20
REMARK    7  A    between atoms: _19  and  _22
REMARK    8  A    between atoms: _22  and  _23
REMARK    9  A    between atoms: _28  and  _29
REMARK   10  A    between atoms: _31  and  _33
REMARK   11  A    between atoms: _33  and  _34
REMARK   12  A    between atoms: _33  and  _36
REMARK   13  A    between atoms: _36  and  _37
REMARK   14  A    between atoms: _39  and  _41
REMARK   15  A    between atoms: _41  and  _42
REMARK   16  A    between atoms: _41  and  _44
REMARK   17  A    between atoms: _44  and  _45
REMARK   18  A    between atoms: _50  and  _52
REMARK   19  A    between atoms: _52  and  _53
REMARK   20  A    between atoms: _52  and  _55
REMARK   21  A    between atoms: _55  and  _56
REMARK   22  A    between atoms: _61  and  _63
REMARK   23  A    between atoms: _63  and  _64
REMARK   24  A    between atoms: _67  and  _69
REMARK   25  A    between atoms: _69  and  _70
REMARK   26  A    between atoms: _69  and  _72
REMARK   27  A    between atoms: _72  and  _73
REMARK   28  A    between atoms: _78  and  _80
REMARK   29  A    between atoms: _80  and  _81
REMARK   30  A    between atoms: _80  and  _83
REMARK   31  A    between atoms: _83  and  _84
REMARK   32  A    between atoms: _87  and  _89
REMARK   33  A    between atoms: _89  and  _90
REMARK   34  A    between atoms: _89  and  _92
REMARK   35  A    between atoms: _92  and  _93
REMARK   36  A    between atoms: _93  and  _94
REMARK   37  A    between atoms: _99  and  _101
REMARK   38  A    between atoms: _112  and  _115
REMARK   39  A    between atoms: _115  and  _116
REMARK   40  A    between atoms: _124  and  _125
REMARK   41  A    between atoms: _133  and  _135
REMARK   42  A    between atoms: _135  and  _136
REMARK   43  A    between atoms: _135  and  _138
REMARK   44  A    between atoms: _138  and  _139
REMARK   45  A    between atoms: _139  and  _140
REMARK   46  A    between atoms: _143  and  _145
REMARK   47  A    between atoms: _145  and  _146
REMARK   48  A    between atoms: _145  and  _148
REMARK   49  A    between atoms: _148  and  _149
REMARK   50  A    between atoms: _154  and  _156
REMARK   51  A    between atoms: _156  and  _157
REMARK   52  A    between atoms: _156  and  _159
REMARK   53  A    between atoms: _159  and  _160
REMARK   54  A    between atoms: _160  and  _161
REMARK   55  A    between atoms: _164  and  _166
REMARK   56  A    between atoms: _166  and  _167
REMARK   57  A    between atoms: _166  and  _169
REMARK   58  A    between atoms: _169  and  _170
REMARK   59  A    between atoms: _173  and  _175
REMARK   60  A    between atoms: _175  and  _176
REMARK   61  A    between atoms: _175  and  _178
REMARK   62  A    between atoms: _178  and  _179
REMARK   63  A    between atoms: _180  and  ZN_390
REMARK   64  A    between atoms: _184  and  _186
REMARK   65  A    between atoms: _186  and  _187
REMARK   66  A    between atoms: _186  and  _189
REMARK   67  A    between atoms: _189  and  _190
REMARK   68  A    between atoms: _193  and  _195
REMARK   69  A    between atoms: _195  and  _196
REMARK   70  A    between atoms: _195  and  _198
REMARK   71  A    between atoms: _201  and  _203
REMARK   72  A    between atoms: _203  and  _204
REMARK   73  A    between atoms: _203  and  _206
REMARK   74  A    between atoms: _206  and  _207
REMARK   75  A    between atoms: _212  and  _214
REMARK   76  A    between atoms: _214  and  _215
REMARK   77  A    between atoms: _214  and  _217
REMARK   78  A    between atoms: _217  and  _218
REMARK   79  A    between atoms: _224  and  _226
REMARK   80  A    between atoms: _226  and  _227
REMARK   81  A    between atoms: _226  and  _229
REMARK   82  A    between atoms: _232  and  _234
REMARK   83  A    between atoms: _234  and  _235
REMARK   84  A    between atoms: _234  and  _237
REMARK   85  A    between atoms: _237  and  _238
REMARK   86  A    between atoms: _241  and  _243
REMARK   87  A    between atoms: _243  and  _244
REMARK   88  A    between atoms: _247  and  _249
REMARK   89  A    between atoms: _249  and  _250
REMARK   90  A    between atoms: _249  and  _252
REMARK   91  A    between atoms: _255  and  _257
REMARK   92  A    between atoms: _257  and  _258
REMARK   93  A    between atoms: _257  and  _260
REMARK   94  A    between atoms: _260  and  _261
REMARK   95  A    between atoms: _264  and  _266
REMARK   96  A    between atoms: _266  and  _267
REMARK   97  A    between atoms: _266  and  _269
REMARK   98  A    between atoms: _269  and  _270
REMARK   99  A    between atoms: _272  and  _274
REMARK  100  A    between atoms: _274  and  _275
REMARK  101  A    between atoms: _274  and  _277
REMARK  102  A    between atoms: _277  and  _278
REMARK  103  A    between atoms: _281  and  _283
REMARK  104  A    between atoms: _283  and  _284
REMARK  105  A    between atoms: _283  and  _286
REMARK  106  A    between atoms: _286  and  _287
REMARK  107  A    between atoms: _290  and  _292
REMARK  108  A    between atoms: _292  and  _293
REMARK  109  A    between atoms: _292  and  _295
REMARK  110  A    between atoms: _295  and  _296
REMARK  111  A    between atoms: _300  and  _301
REMARK  112  A    between atoms: _307  and  _308
REMARK  113  A    between atoms: _313  and  _315
REMARK  114  A    between atoms: _315  and  _316
REMARK  115  A    between atoms: _315  and  _318
REMARK  116  A    between atoms: _318  and  _319
REMARK  117  A    between atoms: _322  and  _324
REMARK  118  A    between atoms: _324  and  _325
REMARK  119  A    between atoms: _324  and  _327
REMARK  120  A    between atoms: _327  and  _328
REMARK  121  A    between atoms: _331  and  _333
REMARK  122  A    between atoms: _333  and  _334
REMARK  123  A    between atoms: _333  and  _336
REMARK  124  A    between atoms: _338  and  _340
REMARK  125  A    between atoms: _340  and  _341
REMARK  126  A    between atoms: _340  and  _343
REMARK  127  A    between atoms: _346  and  _348
REMARK  128  A    between atoms: _348  and  _349
REMARK  129  A    between atoms: _348  and  _351
REMARK  130  A    between atoms: _351  and  _352
REMARK  131  A    between atoms: _362  and  _364
REMARK  132  A    between atoms: _364  and  _365
REMARK  133  A    between atoms: _364  and  _367
REMARK  134  A    between atoms: _367  and  _368
REMARK  135  A    between atoms: _373  and  _375
REMARK  136  A    between atoms: _375  and  _376
REMARK  137  A    between atoms: _375  and  _378
REMARK  138  A    between atoms: _378  and  _379
REMARK  139  A    between atoms: _379  and  _380
REMARK  140  A    between atoms: _380  and  _381
REMARK                            x       y       z     vdW  Elec       q    Type
REMARK                         _______ _______ _______ _____ _____    ______ ____
ROOT
ATOM      1  CA  SER A   1      18.205  -2.499  24.257  0.00  0.00    +0.163 C 
ENDROOT
BRANCH   1   2
ATOM      2  N   SER A   1      19.238  -1.594  24.721  0.00  0.00    -0.237 NA
ATOM      3  H   SER A   1      19.734  -1.010  24.018  0.00  0.00    +0.142 HD
ENDBRANCH   1   2
BRANCH   1   4
ATOM      4  C   SER A   1      18.717  -3.371  23.156  0.00  0.00    +0.227 C 
ATOM      5  O   SER A   1      19.622  -2.981  22.444  0.00  0.00    -0.287 OA
ENDBRANCH   1   4
BRANCH   1   6
ATOM      6  CB  SER A   1      17.055  -1.713  23.667  0.00  0.00    +0.162 C 
BRANCH   6   7
ATOM      7  OG  SER A   1      16.430  -0.951  24.741  0.00  0.00    -0.380 OA
ATOM      8  H   SER A   1      16.098  -1.573  25.436  0.00  0.00    +0.211 HD
ENDBRANCH   6   7
ENDBRANCH   1   6
TORSDOF 4
REMARK  Name = ../refined-set-2016/4q7p/4q7p_pocket.pdb
REMARK  140 active torsions:
REMARK  status: ('A' for Active; 'I' for Inactive)
REMARK    1  A    between atoms: _1  and  _3
REMARK    2  A    between atoms: _3  and  _4
REMARK    3  A    between atoms: _3  and  _6
REMARK    4  A    between atoms: _6  and  _7
REMARK    5  A    between atoms: _17  and  _19
REMARK    6  A    between atoms: _19  and  _20
REMARK    7  A    between atoms: _19  and  _22
REMARK    8  A    between atoms: _22  and  _23
REMARK    9  A    between atoms: _28  and  _29
REMARK   10  A    between atoms: _31  and  _33
REMARK   11  A    between atoms: _33  and  _34
REMARK   12  A    between atoms: _33  and  _36
REMARK   13  A    between atoms: _36  and  _37
REMARK   14  A    between atoms: _39  and  _41
REMARK   15  A    between atoms: _41  and  _42
REMARK   16  A    between atoms: _41  and  _44
REMARK   17  A    between atoms: _44  and  _45
REMARK   18  A    between atoms: _50  and  _52
REMARK   19  A    between atoms: _52  and  _53
REMARK   20  A    between atoms: _52  and  _55
REMARK   21  A    between atoms: _55  and  _56
REMARK   22  A    between atoms: _61  and  _63
REMARK   23  A    between atoms: _63  and  _64
REMARK   24  A    between atoms: _67  and  _69
REMARK   25  A    between atoms: _69  and  _70
REMARK   26  A    between atoms: _69  and  _72
REMARK   27  A    between atoms: _72  and  _73
REMARK   28  A    between atoms: _78  and  _80
REMARK   29  A    between atoms: _80  and  _81
REMARK   30  A    between atoms: _80  and  _83
REMARK   31  A    between atoms: _83  and  _84
REMARK   32  A    between atoms: _87  and  _89
REMARK   33  A    between atoms: _89  and  _90
REMARK   34  A    between atoms: _89  and  _92
REMARK   35  A    between atoms: _92  and  _93
REMARK   36  A    between atoms: _93  and  _94
REMARK   37  A    between atoms: _99  and  _101
REMARK   38  A    between atoms: _112  and  _115
REMARK   39  A    between atoms: _115  and  _116
REMARK   40  A    between atoms: _124  and  _125
REMARK   41  A    between atoms: _133  and  _135
REMARK   42  A    between atoms: _135  and  _136
REMARK   43  A    between atoms: _135  and  _138
REMARK   44  A    between atoms: _138  and  _139
REMARK   45  A    between atoms: _139  and  _140
REMARK   46  A    between atoms: _143  and  _145
REMARK   47  A    between atoms: _145  and  _146
REMARK   48  A    between atoms: _145  and  _148
REMARK   49  A    between atoms: _148  and  _149
REMARK   50  A    between atoms: _154  and  _156
REMARK   51  A    between atoms: _156  and  _157
REMARK   52  A    between atoms: _156  and  _159
REMARK   53  A    between atoms: _159  and  _160
REMARK   54  A    between atoms: _160  and  _161
REMARK   55  A    between atoms: _164  and  _166
REMARK   56  A    between atoms: _166  and  _167
REMARK   57  A    between atoms: _166  and  _169
REMARK   58  A    between atoms: _169  and  _170
REMARK   59  A    between atoms: _173  and  _175
REMARK   60  A    between atoms: _175  and  _176
REMARK   61  A    between atoms: _175  and  _178
REMARK   62  A    between atoms: _178  and  _179
REMARK   63  A    between atoms: _180  and  ZN_390
REMARK   64  A    between atoms: _184  and  _186
REMARK   65  A    between atoms: _186  and  _187
REMARK   66  A    between atoms: _186  and  _189
REMARK   67  A    between atoms: _189  and  _190
REMARK   68  A    between atoms: _193  and  _195
REMARK   69  A    between atoms: _195  and  _196
REMARK   70  A    between atoms: _195  and  _198
REMARK   71  A    between atoms: _201  and  _203
REMARK   72  A    between atoms: _203  and  _204
REMARK   73  A    between atoms: _203  and  _206
REMARK   74  A    between atoms: _206  and  _207
REMARK   75  A    between atoms: _212  and  _214
REMARK   76  A    between atoms: _214  and  _215
REMARK   77  A    between atoms: _214  and  _217
REMARK   78  A    between atoms: _217  and  _218
REMARK   79  A    between atoms: _224  and  _226
REMARK   80  A    between atoms: _226  and  _227
REMARK   81  A    between atoms: _226  and  _229
REMARK   82  A    between atoms: _232  and  _234
REMARK   83  A    between atoms: _234  and  _235
REMARK   84  A    between atoms: _234  and  _237
REMARK   85  A    between atoms: _237  and  _238
REMARK   86  A    between atoms: _241  and  _243
REMARK   87  A    between atoms: _243  and  _244
REMARK   88  A    between atoms: _247  and  _249
REMARK   89  A    between atoms: _249  and  _250
REMARK   90  A    between atoms: _249  and  _252
REMARK   91  A    between atoms: _255  and  _257
REMARK   92  A    between atoms: _257  and  _258
REMARK   93  A    between atoms: _257  and  _260
REMARK   94  A    between atoms: _260  and  _261
REMARK   95  A    between atoms: _264  and  _266
REMARK   96  A    between atoms: _266  and  _267
REMARK   97  A    between atoms: _266  and  _269
REMARK   98  A    between atoms: _269  and  _270
REMARK   99  A    between atoms: _272  and  _274
REMARK  100  A    between atoms: _274  and  _275
REMARK  101  A    between atoms: _274  and  _277
REMARK  102  A    between atoms: _277  and  _278
REMARK  103  A    between atoms: _281  and  _283
REMARK  104  A    between atoms: _283  and  _284
REMARK  105  A    between atoms: _283  and  _286
REMARK  106  A    between atoms: _286  and  _287
REMARK  107  A    between atoms: _290  and  _292
REMARK  108  A    between atoms: _292  and  _293
REMARK  109  A    between atoms: _292  and  _295
REMARK  110  A    between atoms: _295  and  _296
REMARK  111  A    between atoms: _300  and  _301
REMARK  112  A    between atoms: _307  and  _308
REMARK  113  A    between atoms: _313  and  _315
REMARK  114  A    between atoms: _315  and  _316
REMARK  115  A    between atoms: _315  and  _318
REMARK  116  A    between atoms: _318  and  _319
REMARK  117  A    between atoms: _322  and  _324
REMARK  118  A    between atoms: _324  and  _325
REMARK  119  A    between atoms: _324  and  _327
REMARK  120  A    between atoms: _327  and  _328
REMARK  121  A    between atoms: _331  and  _333
REMARK  122  A    between atoms: _333  and  _334
REMARK  123  A    between atoms: _333  and  _336
REMARK  124  A    between atoms: _338  and  _340
REMARK  125  A    between atoms: _340  and  _341
REMARK  126  A    between atoms: _340  and  _343
REMARK  127  A    between atoms: _346  and  _348
REMARK  128  A    between atoms: _348  and  _349
REMARK  129  A    between atoms: _348  and  _351
REMARK  130  A    between atoms: _351  and  _352
REMARK  131  A    between atoms: _362  and  _364
REMARK  132  A    between atoms: _364  and  _365
REMARK  133  A    between atoms: _364  and  _367
REMARK  134  A    between atoms: _367  and  _368
REMARK  135  A    between atoms: _373  and  _375
REMARK  136  A    between atoms: _375  and  _376
REMARK  137  A    between atoms: _375  and  _378
REMARK  138  A    between atoms: _378  and  _379
REMARK  139  A    between atoms: _379  and  _380
REMARK  140  A    between atoms: _380  and  _381
REMARK                            x       y       z     vdW  Elec       q    Type
REMARK                         _______ _______ _______ _____ _____    ______ ____
ROOT
ATOM      1  CB  ASN A   1      18.558   1.921   5.392  0.00  0.00    +0.110 C 
ENDROOT
BRANCH   1   2
ATOM      2  CG  ASN A   1      18.284   1.062   6.610  0.00  0.00    +0.221 C 
ATOM      3  ND2 ASN A   1      17.859   1.724   7.672  0.00  0.00    -0.329 N 
ATOM      4 HD21 ASN A   1      17.700   1.222   8.569  0.00  0.00    +0.145 HD
ATOM      5 HD22 ASN A   1      17.684   2.747   7.611  0.00  0.00    +0.145 HD
ATOM      6  OD1 ASN A   1      18.514  -0.155   6.607  0.00  0.00    -0.275 OA
ENDBRANCH   1   2
BRANCH   1   7
ATOM      7  CA  ASN A   1      18.923   1.095   4.125  0.00  0.00    +0.142 C 
BRANCH   7   8
ATOM      8  N   ASN A   1      17.772   0.242   3.691  0.00  0.00    -0.239 NA
ATOM      9  H   ASN A   1      17.195  -0.264   4.393  0.00  0.00    +0.142 HD
ENDBRANCH   7   8
BRANCH   7  10
ATOM     10  C   ASN A   1      20.181   0.306   4.357  0.00  0.00    +0.225 C 
ATOM     11  O   ASN A   1      21.151   0.811   4.950  0.00  0.00    -0.287 OA
ENDBRANCH   7  10
ENDBRANCH   1   7
TORSDOF 4
REMARK  Name = ../refined-set-2016/4q7p/4q7p_pocket.pdb
REMARK  140 active torsions:
REMARK  status: ('A' for Active; 'I' for Inactive)
REMARK    1  A    between atoms: _1  and  _3
REMARK    2  A    between atoms: _3  and  _4
REMARK    3  A    between atoms: _3  and  _6
REMARK    4  A    between atoms: _6  and  _7
REMARK    5  A    between atoms: _17  and  _19
REMARK    6  A    between atoms: _19  and  _20
REMARK    7  A    between atoms: _19  and  _22
REMARK    8  A    between atoms: _22  and  _23
REMARK    9  A    between atoms: _28  and  _29
REMARK   10  A    between atoms: _31  and  _33
REMARK   11  A    between atoms: _33  and  _34
REMARK   12  A    between atoms: _33  and  _36
REMARK   13  A    between atoms: _36  and  _37
REMARK   14  A    between atoms: _39  and  _41
REMARK   15  A    between atoms: _41  and  _42
REMARK   16  A    between atoms: _41  and  _44
REMARK   17  A    between atoms: _44  and  _45
REMARK   18  A    between atoms: _50  and  _52
REMARK   19  A    between atoms: _52  and  _53
REMARK   20  A    between atoms: _52  and  _55
REMARK   21  A    between atoms: _55  and  _56
REMARK   22  A    between atoms: _61  and  _63
REMARK   23  A    between atoms: _63  and  _64
REMARK   24  A    between atoms: _67  and  _69
REMARK   25  A    between atoms: _69  and  _70
REMARK   26  A    between atoms: _69  and  _72
REMARK   27  A    between atoms: _72  and  _73
REMARK   28  A    between atoms: _78  and  _80
REMARK   29  A    between atoms: _80  and  _81
REMARK   30  A    between atoms: _80  and  _83
REMARK   31  A    between atoms: _83  and  _84
REMARK   32  A    between atoms: _87  and  _89
REMARK   33  A    between atoms: _89  and  _90
REMARK   34  A    between atoms: _89  and  _92
REMARK   35  A    between atoms: _92  and  _93
REMARK   36  A    between atoms: _93  and  _94
REMARK   37  A    between atoms: _99  and  _101
REMARK   38  A    between atoms: _112  and  _115
REMARK   39  A    between atoms: _115  and  _116
REMARK   40  A    between atoms: _124  and  _125
REMARK   41  A    between atoms: _133  and  _135
REMARK   42  A    between atoms: _135  and  _136
REMARK   43  A    between atoms: _135  and  _138
REMARK   44  A    between atoms: _138  and  _139
REMARK   45  A    between atoms: _139  and  _140
REMARK   46  A    between atoms: _143  and  _145
REMARK   47  A    between atoms: _145  and  _146
REMARK   48  A    between atoms: _145  and  _148
REMARK   49  A    between atoms: _148  and  _149
REMARK   50  A    between atoms: _154  and  _156
REMARK   51  A    between atoms: _156  and  _157
REMARK   52  A    between atoms: _156  and  _159
REMARK   53  A    between atoms: _159  and  _160
REMARK   54  A    between atoms: _160  and  _161
REMARK   55  A    between atoms: _164  and  _166
REMARK   56  A    between atoms: _166  and  _167
REMARK   57  A    between atoms: _166  and  _169
REMARK   58  A    between atoms: _169  and  _170
REMARK   59  A    between atoms: _173  and  _175
REMARK   60  A    between atoms: _175  and  _176
REMARK   61  A    between atoms: _175  and  _178
REMARK   62  A    between atoms: _178  and  _179
REMARK   63  A    between atoms: _180  and  ZN_390
REMARK   64  A    between atoms: _184  and  _186
REMARK   65  A    between atoms: _186  and  _187
REMARK   66  A    between atoms: _186  and  _189
REMARK   67  A    between atoms: _189  and  _190
REMARK   68  A    between atoms: _193  and  _195
REMARK   69  A    between atoms: _195  and  _196
REMARK   70  A    between atoms: _195  and  _198
REMARK   71  A    between atoms: _201  and  _203
REMARK   72  A    between atoms: _203  and  _204
REMARK   73  A    between atoms: _203  and  _206
REMARK   74  A    between atoms: _206  and  _207
REMARK   75  A    between atoms: _212  and  _214
REMARK   76  A    between atoms: _214  and  _215
REMARK   77  A    between atoms: _214  and  _217
REMARK   78  A    between atoms: _217  and  _218
REMARK   79  A    between atoms: _224  and  _226
REMARK   80  A    between atoms: _226  and  _227
REMARK   81  A    between atoms: _226  and  _229
REMARK   82  A    between atoms: _232  and  _234
REMARK   83  A    between atoms: _234  and  _235
REMARK   84  A    between atoms: _234  and  _237
REMARK   85  A    between atoms: _237  and  _238
REMARK   86  A    between atoms: _241  and  _243
REMARK   87  A    between atoms: _243  and  _244
REMARK   88  A    between atoms: _247  and  _249
REMARK   89  A    between atoms: _249  and  _250
REMARK   90  A    between atoms: _249  and  _252
REMARK   91  A    between atoms: _255  and  _257
REMARK   92  A    between atoms: _257  and  _258
REMARK   93  A    between atoms: _257  and  _260
REMARK   94  A    between atoms: _260  and  _261
REMARK   95  A    between atoms: _264  and  _266
REMARK   96  A    between atoms: _266  and  _267
REMARK   97  A    between atoms: _266  and  _269
REMARK   98  A    between atoms: _269  and  _270
REMARK   99  A    between atoms: _272  and  _274
REMARK  100  A    between atoms: _274  and  _275
REMARK  101  A    between atoms: _274  and  _277
REMARK  102  A    between atoms: _277  and  _278
REMARK  103  A    between atoms: _281  and  _283
REMARK  104  A    between atoms: _283  and  _284
REMARK  105  A    between atoms: _283  and  _286
REMARK  106  A    between atoms: _286  and  _287
REMARK  107  A    between atoms: _290  and  _292
REMARK  108  A    between atoms: _292  and  _293
REMARK  109  A    between atoms: _292  and  _295
REMARK  110  A    between atoms: _295  and  _296
REMARK  111  A    between atoms: _300  and  _301
REMARK  112  A    between atoms: _307  and  _308
REMARK  113  A    between atoms: _313  and  _315
REMARK  114  A    between atoms: _315  and  _316
REMARK  115  A    between atoms: _315  and  _318
REMARK  116  A    between atoms: _318  and  _319
REMARK  117  A    between atoms: _322  and  _324
REMARK  118  A    between atoms: _324  and  _325
REMARK  119  A    between atoms: _324  and  _327
REMARK  120  A    between atoms: _327  and  _328
REMARK  121  A    between atoms: _331  and  _333
REMARK  122  A    between atoms: _333  and  _334
REMARK  123  A    between atoms: _333  and  _336
REMARK  124  A    between atoms: _338  and  _340
REMARK  125  A    between atoms: _340  and  _341
REMARK  126  A    between atoms: _340  and  _343
REMARK  127  A    between atoms: _346  and  _348
REMARK  128  A    between atoms: _348  and  _349
REMARK  129  A    between atoms: _348  and  _351
REMARK  130  A    between atoms: _351  and  _352
REMARK  131  A    between atoms: _362  and  _364
REMARK  132  A    between atoms: _364  and  _365
REMARK  133  A    between atoms: _364  and  _367
REMARK  134  A    between atoms: _367  and  _368
REMARK  135  A    between atoms: _373  and  _375
REMARK  136  A    between atoms: _375  and  _376
REMARK  137  A    between atoms: _375  and  _378
REMARK  138  A    between atoms: _378  and  _379
REMARK  139  A    between atoms: _379  and  _380
REMARK  140  A    between atoms: _380  and  _381
REMARK                            x       y       z     vdW  Elec       q    Type
REMARK                         _______ _______ _______ _____ _____    ______ ____
ROOT
ATOM      1  CA  HIS A   1      20.371  -3.041   7.616  0.00  0.00    +0.151 C 
ENDROOT
BRANCH   1   2
ATOM      2  C   HIS A   1      18.964  -3.623   7.778  0.00  0.00    +0.239 C 
ATOM      3  O   HIS A   1      18.794  -4.655   8.425  0.00  0.00    -0.274 OA
ATOM      4  N   ALA A   2      17.960  -2.971   7.197  0.00  0.00    -0.298 N 
ATOM      5  H   ALA A   2      18.189  -2.155   6.594  0.00  0.00    +0.150 HD
BRANCH   4   6
ATOM      6  CA  ALA A   2      16.546  -3.339   7.359  0.00  0.00    +0.137 C 
ATOM      7  CB  ALA A   2      15.964  -2.949   8.796  0.00  0.00    +0.030 C 
BRANCH   6   8
ATOM      8  C   ALA A   2      15.822  -2.608   6.215  0.00  0.00    +0.227 C 
ATOM      9  O   ALA A   2      16.474  -1.992   5.341  0.00  0.00    -0.286 OA
ENDBRANCH   6   8
ENDBRANCH   4   6
ENDBRANCH   1   2
BRANCH   1  10
ATOM     10  N   HIS A   1      20.437  -2.296   6.306  0.00  0.00    -0.238 NA
ATOM     11  H   HIS A   1      19.753  -1.537   6.114  0.00  0.00    +0.142 HD
ENDBRANCH   1  10
BRANCH   1  12
ATOM     12  CB  HIS A   1      20.715  -2.131   8.826  0.00  0.00    +0.074 C 
BRANCH  12  13
ATOM     13  CG  HIS A   1      21.951  -1.336   8.557  0.00  0.00    +0.082 A 
ATOM     14  CD2 HIS A   1      23.256  -1.729   8.464  0.00  0.00    +0.115 A 
ATOM     15  NE2 HIS A   1      23.993  -0.607   8.136  0.00  0.00    -0.221 NA
ATOM     16  CE1 HIS A   1      23.167   0.426   8.013  0.00  0.00    +0.199 A 
ATOM     17  ND1 HIS A   1      21.920   0.010   8.256  0.00  0.00    -0.227 NA
ENDBRANCH  12  13
ENDBRANCH   1  12
TORSDOF 6
REMARK  Name = ../refined-set-2016/4q7p/4q7p_pocket.pdb
REMARK  140 active torsions:
REMARK  status: ('A' for Active; 'I' for Inactive)
REMARK    1  A    between atoms: _1  and  _3
REMARK    2  A    between atoms: _3  and  _4
REMARK    3  A    between atoms: _3  and  _6
REMARK    4  A    between atoms: _6  and  _7
REMARK    5  A    between atoms: _17  and  _19
REMARK    6  A    between atoms: _19  and  _20
REMARK    7  A    between atoms: _19  and  _22
REMARK    8  A    between atoms: _22  and  _23
REMARK    9  A    between atoms: _28  and  _29
REMARK   10  A    between atoms: _31  and  _33
REMARK   11  A    between atoms: _33  and  _34
REMARK   12  A    between atoms: _33  and  _36
REMARK   13  A    between atoms: _36  and  _37
REMARK   14  A    between atoms: _39  and  _41
REMARK   15  A    between atoms: _41  and  _42
REMARK   16  A    between atoms: _41  and  _44
REMARK   17  A    between atoms: _44  and  _45
REMARK   18  A    between atoms: _50  and  _52
REMARK   19  A    between atoms: _52  and  _53
REMARK   20  A    between atoms: _52  and  _55
REMARK   21  A    between atoms: _55  and  _56
REMARK   22  A    between atoms: _61  and  _63
REMARK   23  A    between atoms: _63  and  _64
REMARK   24  A    between atoms: _67  and  _69
REMARK   25  A    between atoms: _69  and  _70
REMARK   26  A    between atoms: _69  and  _72
REMARK   27  A    between atoms: _72  and  _73
REMARK   28  A    between atoms: _78  and  _80
REMARK   29  A    between atoms: _80  and  _81
REMARK   30  A    between atoms: _80  and  _83
REMARK   31  A    between atoms: _83  and  _84
REMARK   32  A    between atoms: _87  and  _89
REMARK   33  A    between atoms: _89  and  _90
REMARK   34  A    between atoms: _89  and  _92
REMARK   35  A    between atoms: _92  and  _93
REMARK   36  A    between atoms: _93  and  _94
REMARK   37  A    between atoms: _99  and  _101
REMARK   38  A    between atoms: _112  and  _115
REMARK   39  A    between atoms: _115  and  _116
REMARK   40  A    between atoms: _124  and  _125
REMARK   41  A    between atoms: _133  and  _135
REMARK   42  A    between atoms: _135  and  _136
REMARK   43  A    between atoms: _135  and  _138
REMARK   44  A    between atoms: _138  and  _139
REMARK   45  A    between atoms: _139  and  _140
REMARK   46  A    between atoms: _143  and  _145
REMARK   47  A    between atoms: _145  and  _146
REMARK   48  A    between atoms: _145  and  _148
REMARK   49  A    between atoms: _148  and  _149
REMARK   50  A    between atoms: _154  and  _156
REMARK   51  A    between atoms: _156  and  _157
REMARK   52  A    between atoms: _156  and  _159
REMARK   53  A    between atoms: _159  and  _160
REMARK   54  A    between atoms: _160  and  _161
REMARK   55  A    between atoms: _164  and  _166
REMARK   56  A    between atoms: _166  and  _167
REMARK   57  A    between atoms: _166  and  _169
REMARK   58  A    between atoms: _169  and  _170
REMARK   59  A    between atoms: _173  and  _175
REMARK   60  A    between atoms: _175  and  _176
REMARK   61  A    between atoms: _175  and  _178
REMARK   62  A    between atoms: _178  and  _179
REMARK   63  A    between atoms: _180  and  ZN_390
REMARK   64  A    between atoms: _184  and  _186
REMARK   65  A    between atoms: _186  and  _187
REMARK   66  A    between atoms: _186  and  _189
REMARK   67  A    between atoms: _189  and  _190
REMARK   68  A    between atoms: _193  and  _195
REMARK   69  A    between atoms: _195  and  _196
REMARK   70  A    between atoms: _195  and  _198
REMARK   71  A    between atoms: _201  and  _203
REMARK   72  A    between atoms: _203  and  _204
REMARK   73  A    between atoms: _203  and  _206
REMARK   74  A    between atoms: _206  and  _207
REMARK   75  A    between atoms: _212  and  _214
REMARK   76  A    between atoms: _214  and  _215
REMARK   77  A    between atoms: _214  and  _217
REMARK   78  A    between atoms: _217  and  _218
REMARK   79  A    between atoms: _224  and  _226
REMARK   80  A    between atoms: _226  and  _227
REMARK   81  A    between atoms: _226  and  _229
REMARK   82  A    between atoms: _232  and  _234
REMARK   83  A    between atoms: _234  and  _235
REMARK   84  A    between atoms: _234  and  _237
REMARK   85  A    between atoms: _237  and  _238
REMARK   86  A    between atoms: _241  and  _243
REMARK   87  A    between atoms: _243  and  _244
REMARK   88  A    between atoms: _247  and  _249
REMARK   89  A    between atoms: _249  and  _250
REMARK   90  A    between atoms: _249  and  _252
REMARK   91  A    between atoms: _255  and  _257
REMARK   92  A    between atoms: _257  and  _258
REMARK   93  A    between atoms: _257  and  _260
REMARK   94  A    between atoms: _260  and  _261
REMARK   95  A    between atoms: _264  and  _266
REMARK   96  A    between atoms: _266  and  _267
REMARK   97  A    between atoms: _266  and  _269
REMARK   98  A    between atoms: _269  and  _270
REMARK   99  A    between atoms: _272  and  _274
REMARK  100  A    between atoms: _274  and  _275
REMARK  101  A    between atoms: _274  and  _277
REMARK  102  A    between atoms: _277  and  _278
REMARK  103  A    between atoms: _281  and  _283
REMARK  104  A    between atoms: _283  and  _284
REMARK  105  A    between atoms: _283  and  _286
REMARK  106  A    between atoms: _286  and  _287
REMARK  107  A    between atoms: _290  and  _292
REMARK  108  A    between atoms: _292  and  _293
REMARK  109  A    between atoms: _292  and  _295
REMARK  110  A    between atoms: _295  and  _296
REMARK  111  A    between atoms: _300  and  _301
REMARK  112  A    between atoms: _307  and  _308
REMARK  113  A    between atoms: _313  and  _315
REMARK  114  A    between atoms: _315  and  _316
REMARK  115  A    between atoms: _315  and  _318
REMARK  116  A    between atoms: _318  and  _319
REMARK  117  A    between atoms: _322  and  _324
REMARK  118  A    between atoms: _324  and  _325
REMARK  119  A    between atoms: _324  and  _327
REMARK  120  A    between atoms: _327  and  _328
REMARK  121  A    between atoms: _331  and  _333
REMARK  122  A    between atoms: _333  and  _334
REMARK  123  A    between atoms: _333  and  _336
REMARK  124  A    between atoms: _338  and  _340
REMARK  125  A    between atoms: _340  and  _341
REMARK  126  A    between atoms: _340  and  _343
REMARK  127  A    between atoms: _346  and  _348
REMARK  128  A    between atoms: _348  and  _349
REMARK  129  A    between atoms: _348  and  _351
REMARK  130  A    between atoms: _351  and  _352
REMARK  131  A    between atoms: _362  and  _364
REMARK  132  A    between atoms: _364  and  _365
REMARK  133  A    between atoms: _364  and  _367
REMARK  134  A    between atoms: _367  and  _368
REMARK  135  A    between atoms: _373  and  _375
REMARK  136  A    between atoms: _375  and  _376
REMARK  137  A    between atoms: _375  and  _378
REMARK  138  A    between atoms: _378  and  _379
REMARK  139  A    between atoms: _379  and  _380
REMARK  140  A    between atoms: _380  and  _381
REMARK                            x       y       z     vdW  Elec       q    Type
REMARK                         _______ _______ _______ _____ _____    ______ ____
ROOT
ATOM      1  CB  ASN A   1      12.730   2.614   6.905  0.00  0.00    +0.110 C 
ENDROOT
BRANCH   1   2
ATOM      2  CG  ASN A   1      13.871   2.410   7.910  0.00  0.00    +0.221 C 
ATOM      3  OD1 ASN A   1      13.948   1.378   8.615  0.00  0.00    -0.275 OA
ATOM      4  ND2 ASN A   1      14.769   3.389   7.982  0.00  0.00    -0.329 N 
ATOM      5 HD21 ASN A   1      15.570   3.313   8.641  0.00  0.00    +0.145 HD
ATOM      6 HD22 ASN A   1      14.670   4.231   7.379  0.00  0.00    +0.145 HD
ENDBRANCH   1   2
BRANCH   1   7
ATOM      7  CA  ASN A   1      11.954   1.325   6.613  0.00  0.00    +0.142 C 
BRANCH   7   8
ATOM      8  N   ASN A   1      12.765   0.393   5.836  0.00  0.00    -0.239 NA
ATOM      9  H   ASN A   1      13.266   0.711   4.982  0.00  0.00    +0.142 HD
ENDBRANCH   7   8
BRANCH   7  10
ATOM     10  C   ASN A   1      10.739   1.686   5.793  0.00  0.00    +0.225 C 
ATOM     11  O   ASN A   1      10.892   2.093   4.640  0.00  0.00    -0.287 OA
ENDBRANCH   7  10
ENDBRANCH   1   7
TORSDOF 4
REMARK  Name = ../refined-set-2016/4q7p/4q7p_pocket.pdb
REMARK  140 active torsions:
REMARK  status: ('A' for Active; 'I' for Inactive)
REMARK    1  A    between atoms: _1  and  _3
REMARK    2  A    between atoms: _3  and  _4
REMARK    3  A    between atoms: _3  and  _6
REMARK    4  A    between atoms: _6  and  _7
REMARK    5  A    between atoms: _17  and  _19
REMARK    6  A    between atoms: _19  and  _20
REMARK    7  A    between atoms: _19  and  _22
REMARK    8  A    between atoms: _22  and  _23
REMARK    9  A    between atoms: _28  and  _29
REMARK   10  A    between atoms: _31  and  _33
REMARK   11  A    between atoms: _33  and  _34
REMARK   12  A    between atoms: _33  and  _36
REMARK   13  A    between atoms: _36  and  _37
REMARK   14  A    between atoms: _39  and  _41
REMARK   15  A    between atoms: _41  and  _42
REMARK   16  A    between atoms: _41  and  _44
REMARK   17  A    between atoms: _44  and  _45
REMARK   18  A    between atoms: _50  and  _52
REMARK   19  A    between atoms: _52  and  _53
REMARK   20  A    between atoms: _52  and  _55
REMARK   21  A    between atoms: _55  and  _56
REMARK   22  A    between atoms: _61  and  _63
REMARK   23  A    between atoms: _63  and  _64
REMARK   24  A    between atoms: _67  and  _69
REMARK   25  A    between atoms: _69  and  _70
REMARK   26  A    between atoms: _69  and  _72
REMARK   27  A    between atoms: _72  and  _73
REMARK   28  A    between atoms: _78  and  _80
REMARK   29  A    between atoms: _80  and  _81
REMARK   30  A    between atoms: _80  and  _83
REMARK   31  A    between atoms: _83  and  _84
REMARK   32  A    between atoms: _87  and  _89
REMARK   33  A    between atoms: _89  and  _90
REMARK   34  A    between atoms: _89  and  _92
REMARK   35  A    between atoms: _92  and  _93
REMARK   36  A    between atoms: _93  and  _94
REMARK   37  A    between atoms: _99  and  _101
REMARK   38  A    between atoms: _112  and  _115
REMARK   39  A    between atoms: _115  and  _116
REMARK   40  A    between atoms: _124  and  _125
REMARK   41  A    between atoms: _133  and  _135
REMARK   42  A    between atoms: _135  and  _136
REMARK   43  A    between atoms: _135  and  _138
REMARK   44  A    between atoms: _138  and  _139
REMARK   45  A    between atoms: _139  and  _140
REMARK   46  A    between atoms: _143  and  _145
REMARK   47  A    between atoms: _145  and  _146
REMARK   48  A    between atoms: _145  and  _148
REMARK   49  A    between atoms: _148  and  _149
REMARK   50  A    between atoms: _154  and  _156
REMARK   51  A    between atoms: _156  and  _157
REMARK   52  A    between atoms: _156  and  _159
REMARK   53  A    between atoms: _159  and  _160
REMARK   54  A    between atoms: _160  and  _161
REMARK   55  A    between atoms: _164  and  _166
REMARK   56  A    between atoms: _166  and  _167
REMARK   57  A    between atoms: _166  and  _169
REMARK   58  A    between atoms: _169  and  _170
REMARK   59  A    between atoms: _173  and  _175
REMARK   60  A    between atoms: _175  and  _176
REMARK   61  A    between atoms: _175  and  _178
REMARK   62  A    between atoms: _178  and  _179
REMARK   63  A    between atoms: _180  and  ZN_390
REMARK   64  A    between atoms: _184  and  _186
REMARK   65  A    between atoms: _186  and  _187
REMARK   66  A    between atoms: _186  and  _189
REMARK   67  A    between atoms: _189  and  _190
REMARK   68  A    between atoms: _193  and  _195
REMARK   69  A    between atoms: _195  and  _196
REMARK   70  A    between atoms: _195  and  _198
REMARK   71  A    between atoms: _201  and  _203
REMARK   72  A    between atoms: _203  and  _204
REMARK   73  A    between atoms: _203  and  _206
REMARK   74  A    between atoms: _206  and  _207
REMARK   75  A    between atoms: _212  and  _214
REMARK   76  A    between atoms: _214  and  _215
REMARK   77  A    between atoms: _214  and  _217
REMARK   78  A    between atoms: _217  and  _218
REMARK   79  A    between atoms: _224  and  _226
REMARK   80  A    between atoms: _226  and  _227
REMARK   81  A    between atoms: _226  and  _229
REMARK   82  A    between atoms: _232  and  _234
REMARK   83  A    between atoms: _234  and  _235
REMARK   84  A    between atoms: _234  and  _237
REMARK   85  A    between atoms: _237  and  _238
REMARK   86  A    between atoms: _241  and  _243
REMARK   87  A    between atoms: _243  and  _244
REMARK   88  A    between atoms: _247  and  _249
REMARK   89  A    between atoms: _249  and  _250
REMARK   90  A    between atoms: _249  and  _252
REMARK   91  A    between atoms: _255  and  _257
REMARK   92  A    between atoms: _257  and  _258
REMARK   93  A    between atoms: _257  and  _260
REMARK   94  A    between atoms: _260  and  _261
REMARK   95  A    between atoms: _264  and  _266
REMARK   96  A    between atoms: _266  and  _267
REMARK   97  A    between atoms: _266  and  _269
REMARK   98  A    between atoms: _269  and  _270
REMARK   99  A    between atoms: _272  and  _274
REMARK  100  A    between atoms: _274  and  _275
REMARK  101  A    between atoms: _274  and  _277
REMARK  102  A    between atoms: _277  and  _278
REMARK  103  A    between atoms: _281  and  _283
REMARK  104  A    between atoms: _283  and  _284
REMARK  105  A    between atoms: _283  and  _286
REMARK  106  A    between atoms: _286  and  _287
REMARK  107  A    between atoms: _290  and  _292
REMARK  108  A    between atoms: _292  and  _293
REMARK  109  A    between atoms: _292  and  _295
REMARK  110  A    between atoms: _295  and  _296
REMARK  111  A    between atoms: _300  and  _301
REMARK  112  A    between atoms: _307  and  _308
REMARK  113  A    between atoms: _313  and  _315
REMARK  114  A    between atoms: _315  and  _316
REMARK  115  A    between atoms: _315  and  _318
REMARK  116  A    between atoms: _318  and  _319
REMARK  117  A    between atoms: _322  and  _324
REMARK  118  A    between atoms: _324  and  _325
REMARK  119  A    between atoms: _324  and  _327
REMARK  120  A    between atoms: _327  and  _328
REMARK  121  A    between atoms: _331  and  _333
REMARK  122  A    between atoms: _333  and  _334
REMARK  123  A    between atoms: _333  and  _336
REMARK  124  A    between atoms: _338  and  _340
REMARK  125  A    between atoms: _340  and  _341
REMARK  126  A    between atoms: _340  and  _343
REMARK  127  A    between atoms: _346  and  _348
REMARK  128  A    between atoms: _348  and  _349
REMARK  129  A    between atoms: _348  and  _351
REMARK  130  A    between atoms: _351  and  _352
REMARK  131  A    between atoms: _362  and  _364
REMARK  132  A    between atoms: _364  and  _365
REMARK  133  A    between atoms: _364  and  _367
REMARK  134  A    between atoms: _367  and  _368
REMARK  135  A    between atoms: _373  and  _375
REMARK  136  A    between atoms: _375  and  _376
REMARK  137  A    between atoms: _375  and  _378
REMARK  138  A    between atoms: _378  and  _379
REMARK  139  A    between atoms: _379  and  _380
REMARK  140  A    between atoms: _380  and  _381
REMARK                            x       y       z     vdW  Elec       q    Type
REMARK                         _______ _______ _______ _____ _____    ______ ____
ROOT
ATOM      1  C   ILE A   1       8.377   7.335  10.680  0.00  0.00    +0.238 C 
ATOM      2  N   GLN A   2       8.531   6.116  11.237  0.00  0.00    -0.298 N 
ATOM      3  H   GLN A   2       8.454   5.987  12.266  0.00  0.00    +0.150 HD
ATOM      4  O   ILE A   1       8.379   7.525   9.456  0.00  0.00    -0.274 OA
ENDROOT
BRANCH   1   5
ATOM      5  CA  ILE A   1       8.054   8.498  11.617  0.00  0.00    +0.145 C 
BRANCH   5   6
ATOM      6  N   ILE A   1       7.111   8.102  12.694  0.00  0.00    -0.238 NA
ATOM      7  H   ILE A   1       7.428   7.413  13.406  0.00  0.00    +0.142 HD
ENDBRANCH   5   6
BRANCH   5   8
ATOM      8  CB  ILE A   1       9.324   9.197  12.151  0.00  0.00    +0.025 C 
ATOM      9  CG2 ILE A   1      10.121   8.384  13.191  0.00  0.00    +0.002 C 
BRANCH   8  10
ATOM     10  CG1 ILE A   1      10.246   9.499  10.941  0.00  0.00    +0.002 C 
ATOM     11  CD1 ILE A   1      11.477  10.412  11.288  0.00  0.00    +0.000 C 
ENDBRANCH   8  10
ENDBRANCH   5   8
ENDBRANCH   1   5
BRANCH   2  12
ATOM     12  CA  GLN A   2       8.807   4.987  10.365  0.00  0.00    +0.137 C 
BRANCH  12  13
ATOM     13  C   GLN A   2       8.556   3.725  11.093  0.00  0.00    +0.227 C 
ATOM     14  O   GLN A   2       8.486   3.734  12.340  0.00  0.00    -0.286 OA
ENDBRANCH  12  13
BRANCH  12  15
ATOM     15  CB  GLN A   2      10.271   4.979   9.886  0.00  0.00    +0.037 C 
BRANCH  15  16
ATOM     16  CG  GLN A   2      11.288   5.014  11.051  0.00  0.00    +0.087 C 
BRANCH  16  17
ATOM     17  CD  GLN A   2      12.020   3.719  11.181  0.00  0.00    +0.219 C 
ATOM     18  NE2 GLN A   2      13.338   3.793  11.291  0.00  0.00    -0.329 N 
ATOM     19 HE21 GLN A   2      13.897   2.928  11.437  0.00  0.00    +0.145 HD
ATOM     20 HE22 GLN A   2      13.814   4.716  11.232  0.00  0.00    +0.145 HD
ATOM     21  OE1 GLN A   2      11.411   2.672  11.242  0.00  0.00    -0.275 OA
ENDBRANCH  16  17
ENDBRANCH  15  16
ENDBRANCH  12  15
ENDBRANCH   2  12
TORSDOF 9
REMARK  Name = ../refined-set-2016/4q7p/4q7p_pocket.pdb
REMARK  140 active torsions:
REMARK  status: ('A' for Active; 'I' for Inactive)
REMARK    1  A    between atoms: _1  and  _3
REMARK    2  A    between atoms: _3  and  _4
REMARK    3  A    between atoms: _3  and  _6
REMARK    4  A    between atoms: _6  and  _7
REMARK    5  A    between atoms: _17  and  _19
REMARK    6  A    between atoms: _19  and  _20
REMARK    7  A    between atoms: _19  and  _22
REMARK    8  A    between atoms: _22  and  _23
REMARK    9  A    between atoms: _28  and  _29
REMARK   10  A    between atoms: _31  and  _33
REMARK   11  A    between atoms: _33  and  _34
REMARK   12  A    between atoms: _33  and  _36
REMARK   13  A    between atoms: _36  and  _37
REMARK   14  A    between atoms: _39  and  _41
REMARK   15  A    between atoms: _41  and  _42
REMARK   16  A    between atoms: _41  and  _44
REMARK   17  A    between atoms: _44  and  _45
REMARK   18  A    between atoms: _50  and  _52
REMARK   19  A    between atoms: _52  and  _53
REMARK   20  A    between atoms: _52  and  _55
REMARK   21  A    between atoms: _55  and  _56
REMARK   22  A    between atoms: _61  and  _63
REMARK   23  A    between atoms: _63  and  _64
REMARK   24  A    between atoms: _67  and  _69
REMARK   25  A    between atoms: _69  and  _70
REMARK   26  A    between atoms: _69  and  _72
REMARK   27  A    between atoms: _72  and  _73
REMARK   28  A    between atoms: _78  and  _80
REMARK   29  A    between atoms: _80  and  _81
REMARK   30  A    between atoms: _80  and  _83
REMARK   31  A    between atoms: _83  and  _84
REMARK   32  A    between atoms: _87  and  _89
REMARK   33  A    between atoms: _89  and  _90
REMARK   34  A    between atoms: _89  and  _92
REMARK   35  A    between atoms: _92  and  _93
REMARK   36  A    between atoms: _93  and  _94
REMARK   37  A    between atoms: _99  and  _101
REMARK   38  A    between atoms: _112  and  _115
REMARK   39  A    between atoms: _115  and  _116
REMARK   40  A    between atoms: _124  and  _125
REMARK   41  A    between atoms: _133  and  _135
REMARK   42  A    between atoms: _135  and  _136
REMARK   43  A    between atoms: _135  and  _138
REMARK   44  A    between atoms: _138  and  _139
REMARK   45  A    between atoms: _139  and  _140
REMARK   46  A    between atoms: _143  and  _145
REMARK   47  A    between atoms: _145  and  _146
REMARK   48  A    between atoms: _145  and  _148
REMARK   49  A    between atoms: _148  and  _149
REMARK   50  A    between atoms: _154  and  _156
REMARK   51  A    between atoms: _156  and  _157
REMARK   52  A    between atoms: _156  and  _159
REMARK   53  A    between atoms: _159  and  _160
REMARK   54  A    between atoms: _160  and  _161
REMARK   55  A    between atoms: _164  and  _166
REMARK   56  A    between atoms: _166  and  _167
REMARK   57  A    between atoms: _166  and  _169
REMARK   58  A    between atoms: _169  and  _170
REMARK   59  A    between atoms: _173  and  _175
REMARK   60  A    between atoms: _175  and  _176
REMARK   61  A    between atoms: _175  and  _178
REMARK   62  A    between atoms: _178  and  _179
REMARK   63  A    between atoms: _180  and  ZN_390
REMARK   64  A    between atoms: _184  and  _186
REMARK   65  A    between atoms: _186  and  _187
REMARK   66  A    between atoms: _186  and  _189
REMARK   67  A    between atoms: _189  and  _190
REMARK   68  A    between atoms: _193  and  _195
REMARK   69  A    between atoms: _195  and  _196
REMARK   70  A    between atoms: _195  and  _198
REMARK   71  A    between atoms: _201  and  _203
REMARK   72  A    between atoms: _203  and  _204
REMARK   73  A    between atoms: _203  and  _206
REMARK   74  A    between atoms: _206  and  _207
REMARK   75  A    between atoms: _212  and  _214
REMARK   76  A    between atoms: _214  and  _215
REMARK   77  A    between atoms: _214  and  _217
REMARK   78  A    between atoms: _217  and  _218
REMARK   79  A    between atoms: _224  and  _226
REMARK   80  A    between atoms: _226  and  _227
REMARK   81  A    between atoms: _226  and  _229
REMARK   82  A    between atoms: _232  and  _234
REMARK   83  A    between atoms: _234  and  _235
REMARK   84  A    between atoms: _234  and  _237
REMARK   85  A    between atoms: _237  and  _238
REMARK   86  A    between atoms: _241  and  _243
REMARK   87  A    between atoms: _243  and  _244
REMARK   88  A    between atoms: _247  and  _249
REMARK   89  A    between atoms: _249  and  _250
REMARK   90  A    between atoms: _249  and  _252
REMARK   91  A    between atoms: _255  and  _257
REMARK   92  A    between atoms: _257  and  _258
REMARK   93  A    between atoms: _257  and  _260
REMARK   94  A    between atoms: _260  and  _261
REMARK   95  A    between atoms: _264  and  _266
REMARK   96  A    between atoms: _266  and  _267
REMARK   97  A    between atoms: _266  and  _269
REMARK   98  A    between atoms: _269  and  _270
REMARK   99  A    between atoms: _272  and  _274
REMARK  100  A    between atoms: _274  and  _275
REMARK  101  A    between atoms: _274  and  _277
REMARK  102  A    between atoms: _277  and  _278
REMARK  103  A    between atoms: _281  and  _283
REMARK  104  A    between atoms: _283  and  _284
REMARK  105  A    between atoms: _283  and  _286
REMARK  106  A    between atoms: _286  and  _287
REMARK  107  A    between atoms: _290  and  _292
REMARK  108  A    between atoms: _292  and  _293
REMARK  109  A    between atoms: _292  and  _295
REMARK  110  A    between atoms: _295  and  _296
REMARK  111  A    between atoms: _300  and  _301
REMARK  112  A    between atoms: _307  and  _308
REMARK  113  A    between atoms: _313  and  _315
REMARK  114  A    between atoms: _315  and  _316
REMARK  115  A    between atoms: _315  and  _318
REMARK  116  A    between atoms: _318  and  _319
REMARK  117  A    between atoms: _322  and  _324
REMARK  118  A    between atoms: _324  and  _325
REMARK  119  A    between atoms: _324  and  _327
REMARK  120  A    between atoms: _327  and  _328
REMARK  121  A    between atoms: _331  and  _333
REMARK  122  A    between atoms: _333  and  _334
REMARK  123  A    between atoms: _333  and  _336
REMARK  124  A    between atoms: _338  and  _340
REMARK  125  A    between atoms: _340  and  _341
REMARK  126  A    between atoms: _340  and  _343
REMARK  127  A    between atoms: _346  and  _348
REMARK  128  A    between atoms: _348  and  _349
REMARK  129  A    between atoms: _348  and  _351
REMARK  130  A    between atoms: _351  and  _352
REMARK  131  A    between atoms: _362  and  _364
REMARK  132  A    between atoms: _364  and  _365
REMARK  133  A    between atoms: _364  and  _367
REMARK  134  A    between atoms: _367  and  _368
REMARK  135  A    between atoms: _373  and  _375
REMARK  136  A    between atoms: _375  and  _376
REMARK  137  A    between atoms: _375  and  _378
REMARK  138  A    between atoms: _378  and  _379
REMARK  139  A    between atoms: _379  and  _380
REMARK  140  A    between atoms: _380  and  _381
REMARK                            x       y       z     vdW  Elec       q    Type
REMARK                         _______ _______ _______ _____ _____    ______ ____
ROOT
ATOM      1  C   UNK A   3       9.359  -1.528  15.609  0.00  0.00    +0.000 C 
ENDROOT
BRANCH   1   2
ATOM      2  C   UNK A   3       8.702  -0.408  14.925  0.00  0.00    +0.000 C 
ATOM      3  N   LEU A   4       7.682   0.166  15.601  0.00  0.00    +0.000 N 
ATOM      4  H   LEU A   4       7.360  -0.284  16.482  0.00  0.00    +0.000 HD
ATOM      5  O   UNK A   3       9.129   0.006  13.837  0.00  0.00    +0.000 OA
BRANCH   3   6
ATOM      6  CA  LEU A   4       6.989   1.419  15.147  0.00  0.00    +0.000 C 
BRANCH   6   7
ATOM      7  C   LEU A   4       7.584   2.545  15.894  0.00  0.00    +0.000 C 
ATOM      8  O   LEU A   4       7.481   2.588  17.137  0.00  0.00    +0.000 OA
ATOM      9  N   VAL A   5       8.296   3.400  15.148  0.00  0.00    +0.000 N 
ATOM     10  H   VAL A   5       8.243   3.371  14.110  0.00  0.00    +0.000 HD
BRANCH   9  11
ATOM     11  CA  VAL A   5       9.164   4.392  15.837  0.00  0.00    +0.000 C 
BRANCH  11  12
ATOM     12  C   VAL A   5       8.479   5.773  15.853  0.00  0.00    +0.000 C 
ATOM     13  N   HIS A   6       8.407   6.392  17.053  0.00  0.00    +0.000 N 
ATOM     14  H   HIS A   6       8.877   5.962  17.875  0.00  0.00    +0.000 HD
ATOM     15  O   VAL A   5       8.057   6.260  14.790  0.00  0.00    +0.000 OA
BRANCH  13  16
ATOM     16  CA  HIS A   6       7.675   7.666  17.224  0.00  0.00    +0.000 C 
BRANCH  16  17
ATOM     17  C   HIS A   6       8.544   8.640  17.989  0.00  0.00    +0.000 C 
ATOM     18  O   HIS A   6       9.308   8.264  18.860  0.00  0.00    +0.000 OA
ENDBRANCH  16  17
BRANCH  16  19
ATOM     19  CB  HIS A   6       6.388   7.472  18.068  0.00  0.00    +0.000 C 
BRANCH  19  20
ATOM     20  CG  HIS A   6       5.470   6.385  17.619  0.00  0.00    +0.000 A 
ATOM     21  ND1 HIS A   6       5.793   5.023  17.793  0.00  0.00    +0.000 NA
ATOM     22  CE1 HIS A   6       4.774   4.287  17.347  0.00  0.00    +0.000 A 
ATOM     23  NE2 HIS A   6       3.846   5.094  16.839  0.00  0.00    +0.000 NA
ATOM     24  CD2 HIS A   6       4.281   6.414  16.955  0.00  0.00    +0.000 A 
ENDBRANCH  19  20
ENDBRANCH  16  19
ENDBRANCH  13  16
ENDBRANCH  11  12
BRANCH  11  25
ATOM     25  CB  VAL A   5      10.449   4.558  15.045  0.00  0.00    +0.000 C 
ATOM     26  CG2 VAL A   5      11.409   5.545  15.703  0.00  0.00    +0.000 C 
ATOM     27  CG1 VAL A   5      11.175   3.190  14.843  0.00  0.00    +0.000 C 
ENDBRANCH  11  25
ENDBRANCH   9  11
ENDBRANCH   6   7
BRANCH   6  28
ATOM     28  CB  LEU A   4       5.460   1.325  15.316  0.00  0.00    +0.000 C 
BRANCH  28  29
ATOM     29  CG  LEU A   4       4.883   0.214  14.422  0.00  0.00    +0.000 C 
ATOM     30  CD2 LEU A   4       4.067  -0.701  15.241  0.00  0.00    +0.000 C 
ATOM     31  CD1 LEU A   4       3.983   0.924  13.387  0.00  0.00    +0.000 C 
ENDBRANCH  28  29
ENDBRANCH   6  28
ENDBRANCH   3   6
ENDBRANCH   1   2
BRANCH   1  32
ATOM     32  N   UNK A   3       9.126  -2.759  14.834  0.00  0.00    +0.000 N 
ATOM     33  C   LEU A   2       8.512  -3.835  15.353  0.00  0.00    +0.000 C 
ATOM     34  O   LEU A   2       8.120  -3.886  16.523  0.00  0.00    +0.000 OA
ATOM     35  H   UNK A   3       9.450  -2.796  13.846  0.00  0.00    +0.000 HD
BRANCH  33  36
ATOM     36  CA  LEU A   2       8.272  -5.001  14.361  0.00  0.00    +0.000 C 
BRANCH  36  37
ATOM     37  N   LEU A   2       8.616  -6.237  14.985  0.00  0.00    +0.000 N 
ATOM     38  H   LEU A   2       7.887  -6.733  15.537  0.00  0.00    +0.000 HD
ATOM     39  C   UNK A   1       9.827  -6.785  14.894  0.00  0.00    +0.000 C 
ATOM     40  O   UNK A   1      10.716  -6.374  14.207  0.00  0.00    +0.000 OA
BRANCH  39  41
ATOM     41  C   UNK A   1       9.985  -8.071  15.686  0.00  0.00    +0.000 C 
BRANCH  41  42
ATOM     42  N   UNK A   1      10.548  -9.101  14.824  0.00  0.00    +0.000 NA
ATOM     43  H   UNK A   1      11.233  -8.834  14.089  0.00  0.00    +0.000 HD
ENDBRANCH  41  42
BRANCH  41  44
ATOM     44  C   UNK A   1      10.968  -7.870  16.867  0.00  0.00    +0.000 C 
BRANCH  44  45
ATOM     45  C   UNK A   1      10.458  -6.854  17.925  0.00  0.00    +0.000 C 
BRANCH  45  46
ATOM     46  C   UNK A   1      11.343  -6.851  19.165  0.00  0.00    +0.000 C 
ATOM     47  O   UNK A   1      11.468  -5.782  19.774  0.00  0.00    +0.000 OA
ATOM     48  O   UNK A   1      11.970  -7.894  19.497  0.00  0.00    +0.000 OA
ENDBRANCH  45  46
ENDBRANCH  44  45
ENDBRANCH  41  44
ENDBRANCH  39  41
ENDBRANCH  36  37
BRANCH  36  49
ATOM     49  CB  LEU A   2       6.759  -5.075  13.965  0.00  0.00    +0.000 C 
BRANCH  49  50
ATOM     50  CG  LEU A   2       6.017  -3.733  13.708  0.00  0.00    +0.000 C 
ATOM     51  CD2 LEU A   2       4.627  -4.101  13.301  0.00  0.00    +0.000 C 
ATOM     52  CD1 LEU A   2       6.557  -3.129  12.416  0.00  0.00    +0.000 C 
ENDBRANCH  49  50
ENDBRANCH  36  49
ENDBRANCH  33  36
ENDBRANCH   1  32
BRANCH   1  53
ATOM     53  C   UNK A   3      10.889  -1.272  15.678  0.00  0.00    +0.000 C 
BRANCH  53  58
ATOM     54  N   UNK A   3      12.951  -2.422  16.607  0.00  0.00    +0.000 N 
ATOM     55  C   UNK A   3      13.259  -3.344  17.500  0.00  0.00    +0.000 A 
ATOM     56  N   UNK A   3      12.139  -3.815  18.028  0.00  0.00    +0.000 NA
ATOM     57  C   UNK A   3      11.065  -3.129  17.492  0.00  0.00    +0.000 A 
ATOM     58  C   UNK A   3      11.581  -2.247  16.582  0.00  0.00    +0.000 A 
BRANCH  54  72
ATOM     59  C   UNK A   1      10.822  -1.537  10.360  0.00  0.00    +0.000 C 
ATOM     60  C   UNK A   1      10.729  -2.790  11.116  0.00  0.00    +0.000 C 
ATOM     61  O   UNK A   1      10.069  -2.857  12.168  0.00  0.00    +0.000 OA
ATOM     62  N   LEU A   2      11.435  -3.806  10.649  0.00  0.00    +0.000 N 
ATOM     63  CA  LEU A   2      11.456  -5.089  11.366  0.00  0.00    +0.000 C 
ATOM     64  C   LEU A   2      12.908  -5.553  11.589  0.00  0.00    +0.000 C 
ATOM     65  N   UNK A   3      13.074  -6.523  12.513  0.00  0.00    +0.000 N 
ATOM     66  H   UNK A   3      12.277  -6.758  13.138  0.00  0.00    +0.000 HD
ATOM     67  C   UNK A   3      14.330  -7.258  12.672  0.00  0.00    +0.000 C 
ATOM     68  C   UNK A   3      14.903  -7.006  14.090  0.00  0.00    +0.000 C 
ATOM     69  C   UNK A   3      15.207  -5.535  14.372  0.00  0.00    +0.000 A 
ATOM     70  C   UNK A   3      14.435  -4.503  14.797  0.00  0.00    +0.000 A 
ATOM     71  N   UNK A   3      15.245  -3.378  14.842  0.00  0.00    +0.000 N 
ATOM     72 ZN   UNK A   3      14.529  -1.601  15.454  0.00  0.00    +0.000 Zn
ATOM     73  N   UNK A   1      13.663  -0.878  13.688  0.00  0.00    +0.000 N 
ATOM     74  C   UNK A   1      13.149   0.335  13.542  0.00  0.00    +0.000 A 
ATOM     75  N   UNK A   1      12.630   0.423  12.322  0.00  0.00    +0.000 NA
ATOM     76  C   UNK A   1      12.854  -0.781  11.657  0.00  0.00    +0.000 A 
ATOM     77  C   UNK A   1      13.479  -1.589  12.524  0.00  0.00    +0.000 A 
ATOM     78  C   UNK A   3      16.483  -3.737  14.523  0.00  0.00    +0.000 A 
ATOM     79  N   UNK A   3      16.469  -5.023  14.159  0.00  0.00    +0.000 NA
ATOM     80  O   LEU A   2      13.831  -5.115  10.856  0.00  0.00    +0.000 OA
ATOM     81  H   LEU A   2      11.979  -3.697   9.769  0.00  0.00    +0.000 HD
ATOM     82  C   UNK A   1      12.305  -1.036  10.296  0.00  0.00    +0.000 C 
BRANCH  59  83
ATOM     83  N   UNK A   1       9.921  -0.566  10.997  0.00  0.00    +0.000 NA
ATOM     84  H   UNK A   1       9.670  -0.674  12.000  0.00  0.00    +0.000 HD
ENDBRANCH  59  83
BRANCH  67  85
ATOM     85  C   UNK A   3      13.900  -8.728  12.552  0.00  0.00    +0.000 C 
ATOM     86  O   UNK A   3      12.837  -9.093  13.117  0.00  0.00    +0.000 OA
ENDBRANCH  67  85
BRANCH  63  87
ATOM     87  CB  LEU A   2      10.783  -6.195  10.507  0.00  0.00    +0.000 C 
BRANCH  87  88
ATOM     88  CG  LEU A   2       9.347  -5.935  10.174  0.00  0.00    +0.000 A 
ATOM     89  CD2 LEU A   2       8.293  -6.604  10.885  0.00  0.00    +0.000 A 
ATOM     90  CE2 LEU A   2       6.964  -6.365  10.529  0.00  0.00    +0.000 A 
ATOM     91  CZ  LEU A   2       6.657  -5.466   9.426  0.00  0.00    +0.000 A 
ATOM     92  CE1 LEU A   2       7.635  -4.847   8.765  0.00  0.00    +0.000 A 
ATOM     93  CD1 LEU A   2       8.967  -5.046   9.120  0.00  0.00    +0.000 A 
ENDBRANCH  87  88
ENDBRANCH  63  87
ENDBRANCH  54  72
ENDBRANCH  53  58
ENDBRANCH   1  53
TORSDOF 29
REMARK  Name = ../refined-set-2016/4q7p/4q7p_pocket.pdb
REMARK  140 active torsions:
REMARK  status: ('A' for Active; 'I' for Inactive)
REMARK    1  A    between atoms: _1  and  _3
REMARK    2  A    between atoms: _3  and  _4
REMARK    3  A    between atoms: _3  and  _6
REMARK    4  A    between atoms: _6  and  _7
REMARK    5  A    between atoms: _17  and  _19
REMARK    6  A    between atoms: _19  and  _20
REMARK    7  A    between atoms: _19  and  _22
REMARK    8  A    between atoms: _22  and  _23
REMARK    9  A    between atoms: _28  and  _29
REMARK   10  A    between atoms: _31  and  _33
REMARK   11  A    between atoms: _33  and  _34
REMARK   12  A    between atoms: _33  and  _36
REMARK   13  A    between atoms: _36  and  _37
REMARK   14  A    between atoms: _39  and  _41
REMARK   15  A    between atoms: _41  and  _42
REMARK   16  A    between atoms: _41  and  _44
REMARK   17  A    between atoms: _44  and  _45
REMARK   18  A    between atoms: _50  and  _52
REMARK   19  A    between atoms: _52  and  _53
REMARK   20  A    between atoms: _52  and  _55
REMARK   21  A    between atoms: _55  and  _56
REMARK   22  A    between atoms: _61  and  _63
REMARK   23  A    between atoms: _63  and  _64
REMARK   24  A    between atoms: _67  and  _69
REMARK   25  A    between atoms: _69  and  _70
REMARK   26  A    between atoms: _69  and  _72
REMARK   27  A    between atoms: _72  and  _73
REMARK   28  A    between atoms: _78  and  _80
REMARK   29  A    between atoms: _80  and  _81
REMARK   30  A    between atoms: _80  and  _83
REMARK   31  A    between atoms: _83  and  _84
REMARK   32  A    between atoms: _87  and  _89
REMARK   33  A    between atoms: _89  and  _90
REMARK   34  A    between atoms: _89  and  _92
REMARK   35  A    between atoms: _92  and  _93
REMARK   36  A    between atoms: _93  and  _94
REMARK   37  A    between atoms: _99  and  _101
REMARK   38  A    between atoms: _112  and  _115
REMARK   39  A    between atoms: _115  and  _116
REMARK   40  A    between atoms: _124  and  _125
REMARK   41  A    between atoms: _133  and  _135
REMARK   42  A    between atoms: _135  and  _136
REMARK   43  A    between atoms: _135  and  _138
REMARK   44  A    between atoms: _138  and  _139
REMARK   45  A    between atoms: _139  and  _140
REMARK   46  A    between atoms: _143  and  _145
REMARK   47  A    between atoms: _145  and  _146
REMARK   48  A    between atoms: _145  and  _148
REMARK   49  A    between atoms: _148  and  _149
REMARK   50  A    between atoms: _154  and  _156
REMARK   51  A    between atoms: _156  and  _157
REMARK   52  A    between atoms: _156  and  _159
REMARK   53  A    between atoms: _159  and  _160
REMARK   54  A    between atoms: _160  and  _161
REMARK   55  A    between atoms: _164  and  _166
REMARK   56  A    between atoms: _166  and  _167
REMARK   57  A    between atoms: _166  and  _169
REMARK   58  A    between atoms: _169  and  _170
REMARK   59  A    between atoms: _173  and  _175
REMARK   60  A    between atoms: _175  and  _176
REMARK   61  A    between atoms: _175  and  _178
REMARK   62  A    between atoms: _178  and  _179
REMARK   63  A    between atoms: _180  and  ZN_390
REMARK   64  A    between atoms: _184  and  _186
REMARK   65  A    between atoms: _186  and  _187
REMARK   66  A    between atoms: _186  and  _189
REMARK   67  A    between atoms: _189  and  _190
REMARK   68  A    between atoms: _193  and  _195
REMARK   69  A    between atoms: _195  and  _196
REMARK   70  A    between atoms: _195  and  _198
REMARK   71  A    between atoms: _201  and  _203
REMARK   72  A    between atoms: _203  and  _204
REMARK   73  A    between atoms: _203  and  _206
REMARK   74  A    between atoms: _206  and  _207
REMARK   75  A    between atoms: _212  and  _214
REMARK   76  A    between atoms: _214  and  _215
REMARK   77  A    between atoms: _214  and  _217
REMARK   78  A    between atoms: _217  and  _218
REMARK   79  A    between atoms: _224  and  _226
REMARK   80  A    between atoms: _226  and  _227
REMARK   81  A    between atoms: _226  and  _229
REMARK   82  A    between atoms: _232  and  _234
REMARK   83  A    between atoms: _234  and  _235
REMARK   84  A    between atoms: _234  and  _237
REMARK   85  A    between atoms: _237  and  _238
REMARK   86  A    between atoms: _241  and  _243
REMARK   87  A    between atoms: _243  and  _244
REMARK   88  A    between atoms: _247  and  _249
REMARK   89  A    between atoms: _249  and  _250
REMARK   90  A    between atoms: _249  and  _252
REMARK   91  A    between atoms: _255  and  _257
REMARK   92  A    between atoms: _257  and  _258
REMARK   93  A    between atoms: _257  and  _260
REMARK   94  A    between atoms: _260  and  _261
REMARK   95  A    between atoms: _264  and  _266
REMARK   96  A    between atoms: _266  and  _267
REMARK   97  A    between atoms: _266  and  _269
REMARK   98  A    between atoms: _269  and  _270
REMARK   99  A    between atoms: _272  and  _274
REMARK  100  A    between atoms: _274  and  _275
REMARK  101  A    between atoms: _274  and  _277
REMARK  102  A    between atoms: _277  and  _278
REMARK  103  A    between atoms: _281  and  _283
REMARK  104  A    between atoms: _283  and  _284
REMARK  105  A    between atoms: _283  and  _286
REMARK  106  A    between atoms: _286  and  _287
REMARK  107  A    between atoms: _290  and  _292
REMARK  108  A    between atoms: _292  and  _293
REMARK  109  A    between atoms: _292  and  _295
REMARK  110  A    between atoms: _295  and  _296
REMARK  111  A    between atoms: _300  and  _301
REMARK  112  A    between atoms: _307  and  _308
REMARK  113  A    between atoms: _313  and  _315
REMARK  114  A    between atoms: _315  and  _316
REMARK  115  A    between atoms: _315  and  _318
REMARK  116  A    between atoms: _318  and  _319
REMARK  117  A    between atoms: _322  and  _324
REMARK  118  A    between atoms: _324  and  _325
REMARK  119  A    between atoms: _324  and  _327
REMARK  120  A    between atoms: _327  and  _328
REMARK  121  A    between atoms: _331  and  _333
REMARK  122  A    between atoms: _333  and  _334
REMARK  123  A    between atoms: _333  and  _336
REMARK  124  A    between atoms: _338  and  _340
REMARK  125  A    between atoms: _340  and  _341
REMARK  126  A    between atoms: _340  and  _343
REMARK  127  A    between atoms: _346  and  _348
REMARK  128  A    between atoms: _348  and  _349
REMARK  129  A    between atoms: _348  and  _351
REMARK  130  A    between atoms: _351  and  _352
REMARK  131  A    between atoms: _362  and  _364
REMARK  132  A    between atoms: _364  and  _365
REMARK  133  A    between atoms: _364  and  _367
REMARK  134  A    between atoms: _367  and  _368
REMARK  135  A    between atoms: _373  and  _375
REMARK  136  A    between atoms: _375  and  _376
REMARK  137  A    between atoms: _375  and  _378
REMARK  138  A    between atoms: _378  and  _379
REMARK  139  A    between atoms: _379  and  _380
REMARK  140  A    between atoms: _380  and  _381
REMARK                            x       y       z     vdW  Elec       q    Type
REMARK                         _______ _______ _______ _____ _____    ______ ____
ROOT
ATOM      1  C   GLU A   1      15.067  -8.740  21.094  0.00  0.00    +0.238 C 
ATOM      2  O   GLU A   1      15.828  -9.353  21.856  0.00  0.00    -0.274 OA
ATOM      3  N   HIS A   2      13.866  -8.261  21.478  0.00  0.00    -0.298 N 
ATOM      4  H   HIS A   2      13.297  -7.662  20.847  0.00  0.00    +0.150 HD
ENDROOT
BRANCH   1   5
ATOM      5  CA  GLU A   1      15.469  -8.571  19.635  0.00  0.00    +0.145 C 
BRANCH   5   6
ATOM      6  N   GLU A   1      14.410  -9.206  18.818  0.00  0.00    -0.238 NA
ATOM      7  H   GLU A   1      13.553  -8.668  18.578  0.00  0.00    +0.142 HD
ENDBRANCH   5   6
BRANCH   5   8
ATOM      8  CB  GLU A   1      15.483  -7.089  19.229  0.00  0.00    +0.038 C 
BRANCH   8   9
ATOM      9  CG  GLU A   1      16.115  -7.072  17.802  0.00  0.00    +0.116 C 
BRANCH   9  10
ATOM     10  CD  GLU A   1      16.670  -5.747  17.400  0.00  0.00    +0.365 C 
ATOM     11  OE2 GLU A   1      15.985  -4.725  17.657  0.00  0.00    -0.246 OA
ATOM     12  OE1 GLU A   1      17.822  -5.720  16.910  0.00  0.00    -0.246 OA
ENDBRANCH   9  10
ENDBRANCH   8   9
ENDBRANCH   5   8
ENDBRANCH   1   5
BRANCH   3  13
ATOM     13  CA  HIS A   2      13.398  -8.615  22.809  0.00  0.00    +0.143 C 
BRANCH  13  14
ATOM     14  C   HIS A   2      13.044 -10.041  22.860  0.00  0.00    +0.227 C 
ATOM     15  O   HIS A   2      12.720 -10.625  21.840  0.00  0.00    -0.286 OA
ENDBRANCH  13  14
BRANCH  13  16
ATOM     16  CB  HIS A   2      12.203  -7.787  23.198  0.00  0.00    +0.075 C 
BRANCH  16  17
ATOM     17  CG  HIS A   2      12.558  -6.338  23.315  0.00  0.00    +0.082 A 
ATOM     18  CD2 HIS A   2      12.994  -5.646  24.399  0.00  0.00    +0.115 A 
ATOM     19  NE2 HIS A   2      13.234  -4.347  23.974  0.00  0.00    -0.221 NA
ATOM     20  CE1 HIS A   2      12.917  -4.251  22.693  0.00  0.00    +0.199 A 
ATOM     21  ND1 HIS A   2      12.477  -5.433  22.279  0.00  0.00    -0.227 NA
ENDBRANCH  16  17
ENDBRANCH  13  16
ENDBRANCH   3  13
TORSDOF 9
REMARK  Name = ../refined-set-2016/4q7p/4q7p_pocket.pdb
REMARK  140 active torsions:
REMARK  status: ('A' for Active; 'I' for Inactive)
REMARK    1  A    between atoms: _1  and  _3
REMARK    2  A    between atoms: _3  and  _4
REMARK    3  A    between atoms: _3  and  _6
REMARK    4  A    between atoms: _6  and  _7
REMARK    5  A    between atoms: _17  and  _19
REMARK    6  A    between atoms: _19  and  _20
REMARK    7  A    between atoms: _19  and  _22
REMARK    8  A    between atoms: _22  and  _23
REMARK    9  A    between atoms: _28  and  _29
REMARK   10  A    between atoms: _31  and  _33
REMARK   11  A    between atoms: _33  and  _34
REMARK   12  A    between atoms: _33  and  _36
REMARK   13  A    between atoms: _36  and  _37
REMARK   14  A    between atoms: _39  and  _41
REMARK   15  A    between atoms: _41  and  _42
REMARK   16  A    between atoms: _41  and  _44
REMARK   17  A    between atoms: _44  and  _45
REMARK   18  A    between atoms: _50  and  _52
REMARK   19  A    between atoms: _52  and  _53
REMARK   20  A    between atoms: _52  and  _55
REMARK   21  A    between atoms: _55  and  _56
REMARK   22  A    between atoms: _61  and  _63
REMARK   23  A    between atoms: _63  and  _64
REMARK   24  A    between atoms: _67  and  _69
REMARK   25  A    between atoms: _69  and  _70
REMARK   26  A    between atoms: _69  and  _72
REMARK   27  A    between atoms: _72  and  _73
REMARK   28  A    between atoms: _78  and  _80
REMARK   29  A    between atoms: _80  and  _81
REMARK   30  A    between atoms: _80  and  _83
REMARK   31  A    between atoms: _83  and  _84
REMARK   32  A    between atoms: _87  and  _89
REMARK   33  A    between atoms: _89  and  _90
REMARK   34  A    between atoms: _89  and  _92
REMARK   35  A    between atoms: _92  and  _93
REMARK   36  A    between atoms: _93  and  _94
REMARK   37  A    between atoms: _99  and  _101
REMARK   38  A    between atoms: _112  and  _115
REMARK   39  A    between atoms: _115  and  _116
REMARK   40  A    between atoms: _124  and  _125
REMARK   41  A    between atoms: _133  and  _135
REMARK   42  A    between atoms: _135  and  _136
REMARK   43  A    between atoms: _135  and  _138
REMARK   44  A    between atoms: _138  and  _139
REMARK   45  A    between atoms: _139  and  _140
REMARK   46  A    between atoms: _143  and  _145
REMARK   47  A    between atoms: _145  and  _146
REMARK   48  A    between atoms: _145  and  _148
REMARK   49  A    between atoms: _148  and  _149
REMARK   50  A    between atoms: _154  and  _156
REMARK   51  A    between atoms: _156  and  _157
REMARK   52  A    between atoms: _156  and  _159
REMARK   53  A    between atoms: _159  and  _160
REMARK   54  A    between atoms: _160  and  _161
REMARK   55  A    between atoms: _164  and  _166
REMARK   56  A    between atoms: _166  and  _167
REMARK   57  A    between atoms: _166  and  _169
REMARK   58  A    between atoms: _169  and  _170
REMARK   59  A    between atoms: _173  and  _175
REMARK   60  A    between atoms: _175  and  _176
REMARK   61  A    between atoms: _175  and  _178
REMARK   62  A    between atoms: _178  and  _179
REMARK   63  A    between atoms: _180  and  ZN_390
REMARK   64  A    between atoms: _184  and  _186
REMARK   65  A    between atoms: _186  and  _187
REMARK   66  A    between atoms: _186  and  _189
REMARK   67  A    between atoms: _189  and  _190
REMARK   68  A    between atoms: _193  and  _195
REMARK   69  A    between atoms: _195  and  _196
REMARK   70  A    between atoms: _195  and  _198
REMARK   71  A    between atoms: _201  and  _203
REMARK   72  A    between atoms: _203  and  _204
REMARK   73  A    between atoms: _203  and  _206
REMARK   74  A    between atoms: _206  and  _207
REMARK   75  A    between atoms: _212  and  _214
REMARK   76  A    between atoms: _214  and  _215
REMARK   77  A    between atoms: _214  and  _217
REMARK   78  A    between atoms: _217  and  _218
REMARK   79  A    between atoms: _224  and  _226
REMARK   80  A    between atoms: _226  and  _227
REMARK   81  A    between atoms: _226  and  _229
REMARK   82  A    between atoms: _232  and  _234
REMARK   83  A    between atoms: _234  and  _235
REMARK   84  A    between atoms: _234  and  _237
REMARK   85  A    between atoms: _237  and  _238
REMARK   86  A    between atoms: _241  and  _243
REMARK   87  A    between atoms: _243  and  _244
REMARK   88  A    between atoms: _247  and  _249
REMARK   89  A    between atoms: _249  and  _250
REMARK   90  A    between atoms: _249  and  _252
REMARK   91  A    between atoms: _255  and  _257
REMARK   92  A    between atoms: _257  and  _258
REMARK   93  A    between atoms: _257  and  _260
REMARK   94  A    between atoms: _260  and  _261
REMARK   95  A    between atoms: _264  and  _266
REMARK   96  A    between atoms: _266  and  _267
REMARK   97  A    between atoms: _266  and  _269
REMARK   98  A    between atoms: _269  and  _270
REMARK   99  A    between atoms: _272  and  _274
REMARK  100  A    between atoms: _274  and  _275
REMARK  101  A    between atoms: _274  and  _277
REMARK  102  A    between atoms: _277  and  _278
REMARK  103  A    between atoms: _281  and  _283
REMARK  104  A    between atoms: _283  and  _284
REMARK  105  A    between atoms: _283  and  _286
REMARK  106  A    between atoms: _286  and  _287
REMARK  107  A    between atoms: _290  and  _292
REMARK  108  A    between atoms: _292  and  _293
REMARK  109  A    between atoms: _292  and  _295
REMARK  110  A    between atoms: _295  and  _296
REMARK  111  A    between atoms: _300  and  _301
REMARK  112  A    between atoms: _307  and  _308
REMARK  113  A    between atoms: _313  and  _315
REMARK  114  A    between atoms: _315  and  _316
REMARK  115  A    between atoms: _315  and  _318
REMARK  116  A    between atoms: _318  and  _319
REMARK  117  A    between atoms: _322  and  _324
REMARK  118  A    between atoms: _324  and  _325
REMARK  119  A    between atoms: _324  and  _327
REMARK  120  A    between atoms: _327  and  _328
REMARK  121  A    between atoms: _331  and  _333
REMARK  122  A    between atoms: _333  and  _334
REMARK  123  A    between atoms: _333  and  _336
REMARK  124  A    between atoms: _338  and  _340
REMARK  125  A    between atoms: _340  and  _341
REMARK  126  A    between atoms: _340  and  _343
REMARK  127  A    between atoms: _346  and  _348
REMARK  128  A    between atoms: _348  and  _349
REMARK  129  A    between atoms: _348  and  _351
REMARK  130  A    between atoms: _351  and  _352
REMARK  131  A    between atoms: _362  and  _364
REMARK  132  A    between atoms: _364  and  _365
REMARK  133  A    between atoms: _364  and  _367
REMARK  134  A    between atoms: _367  and  _368
REMARK  135  A    between atoms: _373  and  _375
REMARK  136  A    between atoms: _375  and  _376
REMARK  137  A    between atoms: _375  and  _378
REMARK  138  A    between atoms: _378  and  _379
REMARK  139  A    between atoms: _379  and  _380
REMARK  140  A    between atoms: _380  and  _381
REMARK                            x       y       z     vdW  Elec       q    Type
REMARK                         _______ _______ _______ _____ _____    ______ ____
ROOT
ATOM      1  CB  PHE A   1      13.178  12.475  13.918  0.00  0.00    +0.051 C 
ENDROOT
BRANCH   1   2
ATOM      2  CG  PHE A   1      13.860  11.191  14.193  0.00  0.00    -0.020 A 
ATOM      3  CD2 PHE A   1      13.210  10.164  14.931  0.00  0.00    -0.004 A 
ATOM      4  CE2 PHE A   1      13.847   8.945  15.194  0.00  0.00    -0.000 A 
ATOM      5  CZ  PHE A   1      15.144   8.754  14.800  0.00  0.00    -0.000 A 
ATOM      6  CE1 PHE A   1      15.813   9.774  14.115  0.00  0.00    -0.000 A 
ATOM      7  CD1 PHE A   1      15.190  11.006  13.837  0.00  0.00    -0.004 A 
ENDBRANCH   1   2
BRANCH   1   8
ATOM      8  CA  PHE A   1      13.277  13.504  15.080  0.00  0.00    +0.137 C 
BRANCH   8   9
ATOM      9  N   PHE A   1      12.644  14.760  14.697  0.00  0.00    -0.239 NA
ATOM     10  H   PHE A   1      12.333  14.892  13.713  0.00  0.00    +0.142 HD
ENDBRANCH   8   9
BRANCH   8  11
ATOM     11  C   PHE A   1      14.702  13.722  15.502  0.00  0.00    +0.224 C 
ATOM     12  O   PHE A   1      15.198  13.137  16.485  0.00  0.00    -0.287 OA
ENDBRANCH   8  11
ENDBRANCH   1   8
TORSDOF 4
REMARK  Name = ../refined-set-2016/4q7p/4q7p_pocket.pdb
REMARK  140 active torsions:
REMARK  status: ('A' for Active; 'I' for Inactive)
REMARK    1  A    between atoms: _1  and  _3
REMARK    2  A    between atoms: _3  and  _4
REMARK    3  A    between atoms: _3  and  _6
REMARK    4  A    between atoms: _6  and  _7
REMARK    5  A    between atoms: _17  and  _19
REMARK    6  A    between atoms: _19  and  _20
REMARK    7  A    between atoms: _19  and  _22
REMARK    8  A    between atoms: _22  and  _23
REMARK    9  A    between atoms: _28  and  _29
REMARK   10  A    between atoms: _31  and  _33
REMARK   11  A    between atoms: _33  and  _34
REMARK   12  A    between atoms: _33  and  _36
REMARK   13  A    between atoms: _36  and  _37
REMARK   14  A    between atoms: _39  and  _41
REMARK   15  A    between atoms: _41  and  _42
REMARK   16  A    between atoms: _41  and  _44
REMARK   17  A    between atoms: _44  and  _45
REMARK   18  A    between atoms: _50  and  _52
REMARK   19  A    between atoms: _52  and  _53
REMARK   20  A    between atoms: _52  and  _55
REMARK   21  A    between atoms: _55  and  _56
REMARK   22  A    between atoms: _61  and  _63
REMARK   23  A    between atoms: _63  and  _64
REMARK   24  A    between atoms: _67  and  _69
REMARK   25  A    between atoms: _69  and  _70
REMARK   26  A    between atoms: _69  and  _72
REMARK   27  A    between atoms: _72  and  _73
REMARK   28  A    between atoms: _78  and  _80
REMARK   29  A    between atoms: _80  and  _81
REMARK   30  A    between atoms: _80  and  _83
REMARK   31  A    between atoms: _83  and  _84
REMARK   32  A    between atoms: _87  and  _89
REMARK   33  A    between atoms: _89  and  _90
REMARK   34  A    between atoms: _89  and  _92
REMARK   35  A    between atoms: _92  and  _93
REMARK   36  A    between atoms: _93  and  _94
REMARK   37  A    between atoms: _99  and  _101
REMARK   38  A    between atoms: _112  and  _115
REMARK   39  A    between atoms: _115  and  _116
REMARK   40  A    between atoms: _124  and  _125
REMARK   41  A    between atoms: _133  and  _135
REMARK   42  A    between atoms: _135  and  _136
REMARK   43  A    between atoms: _135  and  _138
REMARK   44  A    between atoms: _138  and  _139
REMARK   45  A    between atoms: _139  and  _140
REMARK   46  A    between atoms: _143  and  _145
REMARK   47  A    between atoms: _145  and  _146
REMARK   48  A    between atoms: _145  and  _148
REMARK   49  A    between atoms: _148  and  _149
REMARK   50  A    between atoms: _154  and  _156
REMARK   51  A    between atoms: _156  and  _157
REMARK   52  A    between atoms: _156  and  _159
REMARK   53  A    between atoms: _159  and  _160
REMARK   54  A    between atoms: _160  and  _161
REMARK   55  A    between atoms: _164  and  _166
REMARK   56  A    between atoms: _166  and  _167
REMARK   57  A    between atoms: _166  and  _169
REMARK   58  A    between atoms: _169  and  _170
REMARK   59  A    between atoms: _173  and  _175
REMARK   60  A    between atoms: _175  and  _176
REMARK   61  A    between atoms: _175  and  _178
REMARK   62  A    between atoms: _178  and  _179
REMARK   63  A    between atoms: _180  and  ZN_390
REMARK   64  A    between atoms: _184  and  _186
REMARK   65  A    between atoms: _186  and  _187
REMARK   66  A    between atoms: _186  and  _189
REMARK   67  A    between atoms: _189  and  _190
REMARK   68  A    between atoms: _193  and  _195
REMARK   69  A    between atoms: _195  and  _196
REMARK   70  A    between atoms: _195  and  _198
REMARK   71  A    between atoms: _201  and  _203
REMARK   72  A    between atoms: _203  and  _204
REMARK   73  A    between atoms: _203  and  _206
REMARK   74  A    between atoms: _206  and  _207
REMARK   75  A    between atoms: _212  and  _214
REMARK   76  A    between atoms: _214  and  _215
REMARK   77  A    between atoms: _214  and  _217
REMARK   78  A    between atoms: _217  and  _218
REMARK   79  A    between atoms: _224  and  _226
REMARK   80  A    between atoms: _226  and  _227
REMARK   81  A    between atoms: _226  and  _229
REMARK   82  A    between atoms: _232  and  _234
REMARK   83  A    between atoms: _234  and  _235
REMARK   84  A    between atoms: _234  and  _237
REMARK   85  A    between atoms: _237  and  _238
REMARK   86  A    between atoms: _241  and  _243
REMARK   87  A    between atoms: _243  and  _244
REMARK   88  A    between atoms: _247  and  _249
REMARK   89  A    between atoms: _249  and  _250
REMARK   90  A    between atoms: _249  and  _252
REMARK   91  A    between atoms: _255  and  _257
REMARK   92  A    between atoms: _257  and  _258
REMARK   93  A    between atoms: _257  and  _260
REMARK   94  A    between atoms: _260  and  _261
REMARK   95  A    between atoms: _264  and  _266
REMARK   96  A    between atoms: _266  and  _267
REMARK   97  A    between atoms: _266  and  _269
REMARK   98  A    between atoms: _269  and  _270
REMARK   99  A    between atoms: _272  and  _274
REMARK  100  A    between atoms: _274  and  _275
REMARK  101  A    between atoms: _274  and  _277
REMARK  102  A    between atoms: _277  and  _278
REMARK  103  A    between atoms: _281  and  _283
REMARK  104  A    between atoms: _283  and  _284
REMARK  105  A    between atoms: _283  and  _286
REMARK  106  A    between atoms: _286  and  _287
REMARK  107  A    between atoms: _290  and  _292
REMARK  108  A    between atoms: _292  and  _293
REMARK  109  A    between atoms: _292  and  _295
REMARK  110  A    between atoms: _295  and  _296
REMARK  111  A    between atoms: _300  and  _301
REMARK  112  A    between atoms: _307  and  _308
REMARK  113  A    between atoms: _313  and  _315
REMARK  114  A    between atoms: _315  and  _316
REMARK  115  A    between atoms: _315  and  _318
REMARK  116  A    between atoms: _318  and  _319
REMARK  117  A    between atoms: _322  and  _324
REMARK  118  A    between atoms: _324  and  _325
REMARK  119  A    between atoms: _324  and  _327
REMARK  120  A    between atoms: _327  and  _328
REMARK  121  A    between atoms: _331  and  _333
REMARK  122  A    between atoms: _333  and  _334
REMARK  123  A    between atoms: _333  and  _336
REMARK  124  A    between atoms: _338  and  _340
REMARK  125  A    between atoms: _340  and  _341
REMARK  126  A    between atoms: _340  and  _343
REMARK  127  A    between atoms: _346  and  _348
REMARK  128  A    between atoms: _348  and  _349
REMARK  129  A    between atoms: _348  and  _351
REMARK  130  A    between atoms: _351  and  _352
REMARK  131  A    between atoms: _362  and  _364
REMARK  132  A    between atoms: _364  and  _365
REMARK  133  A    between atoms: _364  and  _367
REMARK  134  A    between atoms: _367  and  _368
REMARK  135  A    between atoms: _373  and  _375
REMARK  136  A    between atoms: _375  and  _376
REMARK  137  A    between atoms: _375  and  _378
REMARK  138  A    between atoms: _378  and  _379
REMARK  139  A    between atoms: _379  and  _380
REMARK  140  A    between atoms: _380  and  _381
REMARK                            x       y       z     vdW  Elec       q    Type
REMARK                         _______ _______ _______ _____ _____    ______ ____
ROOT
ATOM      1  CA  VAL A   1      17.182  11.711  19.648  0.00  0.00    +0.133 C 
ENDROOT
BRANCH   1   2
ATOM      2  CB  VAL A   1      17.680  10.821  18.448  0.00  0.00    +0.023 C 
ATOM      3  CG2 VAL A   1      16.431  10.236  17.699  0.00  0.00    +0.002 C 
ATOM      4  CG1 VAL A   1      18.505  11.686  17.467  0.00  0.00    +0.002 C 
ENDBRANCH   1   2
BRANCH   1   5
ATOM      5  N   VAL A   1      16.140  12.710  19.312  0.00  0.00    -0.239 NA
ATOM      6  H   VAL A   1      16.050  13.069  18.340  0.00  0.00    +0.142 HD
ENDBRANCH   1   5
BRANCH   1   7
ATOM      7  C   VAL A   1      18.369  12.258  20.477  0.00  0.00    +0.224 C 
ATOM      8  O   VAL A   1      19.249  11.487  20.871  0.00  0.00    -0.287 OA
ENDBRANCH   1   7
TORSDOF 3
REMARK  Name = ../refined-set-2016/4q7p/4q7p_pocket.pdb
REMARK  140 active torsions:
REMARK  status: ('A' for Active; 'I' for Inactive)
REMARK    1  A    between atoms: _1  and  _3
REMARK    2  A    between atoms: _3  and  _4
REMARK    3  A    between atoms: _3  and  _6
REMARK    4  A    between atoms: _6  and  _7
REMARK    5  A    between atoms: _17  and  _19
REMARK    6  A    between atoms: _19  and  _20
REMARK    7  A    between atoms: _19  and  _22
REMARK    8  A    between atoms: _22  and  _23
REMARK    9  A    between atoms: _28  and  _29
REMARK   10  A    between atoms: _31  and  _33
REMARK   11  A    between atoms: _33  and  _34
REMARK   12  A    between atoms: _33  and  _36
REMARK   13  A    between atoms: _36  and  _37
REMARK   14  A    between atoms: _39  and  _41
REMARK   15  A    between atoms: _41  and  _42
REMARK   16  A    between atoms: _41  and  _44
REMARK   17  A    between atoms: _44  and  _45
REMARK   18  A    between atoms: _50  and  _52
REMARK   19  A    between atoms: _52  and  _53
REMARK   20  A    between atoms: _52  and  _55
REMARK   21  A    between atoms: _55  and  _56
REMARK   22  A    between atoms: _61  and  _63
REMARK   23  A    between atoms: _63  and  _64
REMARK   24  A    between atoms: _67  and  _69
REMARK   25  A    between atoms: _69  and  _70
REMARK   26  A    between atoms: _69  and  _72
REMARK   27  A    between atoms: _72  and  _73
REMARK   28  A    between atoms: _78  and  _80
REMARK   29  A    between atoms: _80  and  _81
REMARK   30  A    between atoms: _80  and  _83
REMARK   31  A    between atoms: _83  and  _84
REMARK   32  A    between atoms: _87  and  _89
REMARK   33  A    between atoms: _89  and  _90
REMARK   34  A    between atoms: _89  and  _92
REMARK   35  A    between atoms: _92  and  _93
REMARK   36  A    between atoms: _93  and  _94
REMARK   37  A    between atoms: _99  and  _101
REMARK   38  A    between atoms: _112  and  _115
REMARK   39  A    between atoms: _115  and  _116
REMARK   40  A    between atoms: _124  and  _125
REMARK   41  A    between atoms: _133  and  _135
REMARK   42  A    between atoms: _135  and  _136
REMARK   43  A    between atoms: _135  and  _138
REMARK   44  A    between atoms: _138  and  _139
REMARK   45  A    between atoms: _139  and  _140
REMARK   46  A    between atoms: _143  and  _145
REMARK   47  A    between atoms: _145  and  _146
REMARK   48  A    between atoms: _145  and  _148
REMARK   49  A    between atoms: _148  and  _149
REMARK   50  A    between atoms: _154  and  _156
REMARK   51  A    between atoms: _156  and  _157
REMARK   52  A    between atoms: _156  and  _159
REMARK   53  A    between atoms: _159  and  _160
REMARK   54  A    between atoms: _160  and  _161
REMARK   55  A    between atoms: _164  and  _166
REMARK   56  A    between atoms: _166  and  _167
REMARK   57  A    between atoms: _166  and  _169
REMARK   58  A    between atoms: _169  and  _170
REMARK   59  A    between atoms: _173  and  _175
REMARK   60  A    between atoms: _175  and  _176
REMARK   61  A    between atoms: _175  and  _178
REMARK   62  A    between atoms: _178  and  _179
REMARK   63  A    between atoms: _180  and  ZN_390
REMARK   64  A    between atoms: _184  and  _186
REMARK   65  A    between atoms: _186  and  _187
REMARK   66  A    between atoms: _186  and  _189
REMARK   67  A    between atoms: _189  and  _190
REMARK   68  A    between atoms: _193  and  _195
REMARK   69  A    between atoms: _195  and  _196
REMARK   70  A    between atoms: _195  and  _198
REMARK   71  A    between atoms: _201  and  _203
REMARK   72  A    between atoms: _203  and  _204
REMARK   73  A    between atoms: _203  and  _206
REMARK   74  A    between atoms: _206  and  _207
REMARK   75  A    between atoms: _212  and  _214
REMARK   76  A    between atoms: _214  and  _215
REMARK   77  A    between atoms: _214  and  _217
REMARK   78  A    between atoms: _217  and  _218
REMARK   79  A    between atoms: _224  and  _226
REMARK   80  A    between atoms: _226  and  _227
REMARK   81  A    between atoms: _226  and  _229
REMARK   82  A    between atoms: _232  and  _234
REMARK   83  A    between atoms: _234  and  _235
REMARK   84  A    between atoms: _234  and  _237
REMARK   85  A    between atoms: _237  and  _238
REMARK   86  A    between atoms: _241  and  _243
REMARK   87  A    between atoms: _243  and  _244
REMARK   88  A    between atoms: _247  and  _249
REMARK   89  A    between atoms: _249  and  _250
REMARK   90  A    between atoms: _249  and  _252
REMARK   91  A    between atoms: _255  and  _257
REMARK   92  A    between atoms: _257  and  _258
REMARK   93  A    between atoms: _257  and  _260
REMARK   94  A    between atoms: _260  and  _261
REMARK   95  A    between atoms: _264  and  _266
REMARK   96  A    between atoms: _266  and  _267
REMARK   97  A    between atoms: _266  and  _269
REMARK   98  A    between atoms: _269  and  _270
REMARK   99  A    between atoms: _272  and  _274
REMARK  100  A    between atoms: _274  and  _275
REMARK  101  A    between atoms: _274  and  _277
REMARK  102  A    between atoms: _277  and  _278
REMARK  103  A    between atoms: _281  and  _283
REMARK  104  A    between atoms: _283  and  _284
REMARK  105  A    between atoms: _283  and  _286
REMARK  106  A    between atoms: _286  and  _287
REMARK  107  A    between atoms: _290  and  _292
REMARK  108  A    between atoms: _292  and  _293
REMARK  109  A    between atoms: _292  and  _295
REMARK  110  A    between atoms: _295  and  _296
REMARK  111  A    between atoms: _300  and  _301
REMARK  112  A    between atoms: _307  and  _308
REMARK  113  A    between atoms: _313  and  _315
REMARK  114  A    between atoms: _315  and  _316
REMARK  115  A    between atoms: _315  and  _318
REMARK  116  A    between atoms: _318  and  _319
REMARK  117  A    between atoms: _322  and  _324
REMARK  118  A    between atoms: _324  and  _325
REMARK  119  A    between atoms: _324  and  _327
REMARK  120  A    between atoms: _327  and  _328
REMARK  121  A    between atoms: _331  and  _333
REMARK  122  A    between atoms: _333  and  _334
REMARK  123  A    between atoms: _333  and  _336
REMARK  124  A    between atoms: _338  and  _340
REMARK  125  A    between atoms: _340  and  _341
REMARK  126  A    between atoms: _340  and  _343
REMARK  127  A    between atoms: _346  and  _348
REMARK  128  A    between atoms: _348  and  _349
REMARK  129  A    between atoms: _348  and  _351
REMARK  130  A    between atoms: _351  and  _352
REMARK  131  A    between atoms: _362  and  _364
REMARK  132  A    between atoms: _364  and  _365
REMARK  133  A    between atoms: _364  and  _367
REMARK  134  A    between atoms: _367  and  _368
REMARK  135  A    between atoms: _373  and  _375
REMARK  136  A    between atoms: _375  and  _376
REMARK  137  A    between atoms: _375  and  _378
REMARK  138  A    between atoms: _378  and  _379
REMARK  139  A    between atoms: _379  and  _380
REMARK  140  A    between atoms: _380  and  _381
REMARK                            x       y       z     vdW  Elec       q    Type
REMARK                         _______ _______ _______ _____ _____    ______ ____
ROOT
ATOM      1  C   ALA A   2       8.586   4.816  20.817  0.00  0.00    +0.241 C 
ATOM      2  N   VAL A   3       8.982   3.576  21.115  0.00  0.00    -0.297 N 
ATOM      3  H   VAL A   3       9.319   3.345  22.072  0.00  0.00    +0.150 HD
ATOM      4  O   ALA A   2       8.272   5.159  19.674  0.00  0.00    -0.273 OA
ENDROOT
BRANCH   1   5
ATOM      5  CA  ALA A   2       8.687   5.834  21.921  0.00  0.00    +0.149 C 
ATOM      6  CB  ALA A   2       7.314   6.331  22.344  0.00  0.00    +0.031 C 
BRANCH   5   9
ATOM      7  C   LEU A   1      10.470   7.431  22.111  0.00  0.00    +0.238 C 
ATOM      8  O   LEU A   1      10.728   7.185  23.307  0.00  0.00    -0.274 OA
ATOM      9  N   ALA A   2       9.433   6.955  21.414  0.00  0.00    -0.297 N 
ATOM     10  H   ALA A   2       9.167   7.393  20.509  0.00  0.00    +0.150 HD
BRANCH   7  11
ATOM     11  CA  LEU A   1      11.376   8.407  21.334  0.00  0.00    +0.145 C 
BRANCH  11  12
ATOM     12  N   LEU A   1      12.057   9.370  22.192  0.00  0.00    -0.238 NA
ATOM     13  H   LEU A   1      12.607   9.040  23.011  0.00  0.00    +0.142 HD
ENDBRANCH  11  12
BRANCH  11  14
ATOM     14  CB  LEU A   1      12.402   7.523  20.578  0.00  0.00    +0.026 C 
BRANCH  14  15
ATOM     15  CG  LEU A   1      13.331   8.293  19.660  0.00  0.00    +0.002 C 
ATOM     16  CD2 LEU A   1      14.153   7.206  18.890  0.00  0.00    +0.000 C 
ATOM     17  CD1 LEU A   1      12.691   9.139  18.596  0.00  0.00    +0.000 C 
ENDBRANCH  14  15
ENDBRANCH  11  14
ENDBRANCH   7  11
ENDBRANCH   5   9
ENDBRANCH   1   5
BRANCH   2  18
ATOM     18  CA  VAL A   3       8.936   2.566  20.096  0.00  0.00    +0.149 C 
BRANCH  18  19
ATOM     19  C   VAL A   3       7.949   1.507  20.571  0.00  0.00    +0.241 C 
ATOM     20  O   VAL A   3       8.110   1.007  21.684  0.00  0.00    -0.273 OA
ATOM     21  N   LEU A   4       6.998   1.179  19.721  0.00  0.00    -0.298 N 
ATOM     22  H   LEU A   4       6.922   1.701  18.824  0.00  0.00    +0.150 HD
BRANCH  21  23
ATOM     23  CA  LEU A   4       6.048   0.108  19.997  0.00  0.00    +0.137 C 
BRANCH  23  24
ATOM     24  C   LEU A   4       6.634  -1.091  19.317  0.00  0.00    +0.227 C 
ATOM     25  O   LEU A   4       6.764  -1.089  18.089  0.00  0.00    -0.286 OA
ENDBRANCH  23  24
BRANCH  23  26
ATOM     26  CB  LEU A   4       4.717   0.495  19.296  0.00  0.00    +0.028 C 
BRANCH  26  27
ATOM     27  CG  LEU A   4       3.534  -0.403  19.475  0.00  0.00    +0.002 C 
ATOM     28  CD2 LEU A   4       3.186  -0.718  20.958  0.00  0.00    +0.000 C 
ATOM     29  CD1 LEU A   4       2.282   0.248  18.776  0.00  0.00    +0.000 C 
ENDBRANCH  26  27
ENDBRANCH  23  26
ENDBRANCH  21  23
ENDBRANCH  18  19
BRANCH  18  30
ATOM     30  CB  VAL A   3      10.308   1.955  19.845  0.00  0.00    +0.027 C 
ATOM     31  CG2 VAL A   3      11.298   3.060  19.420  0.00  0.00    +0.002 C 
ATOM     32  CG1 VAL A   3      10.230   0.894  18.670  0.00  0.00    +0.002 C 
ENDBRANCH  18  30
ENDBRANCH   2  18
TORSDOF 13
REMARK  Name = ../refined-set-2016/4q7p/4q7p_pocket.pdb
REMARK  140 active torsions:
REMARK  status: ('A' for Active; 'I' for Inactive)
REMARK    1  A    between atoms: _1  and  _3
REMARK    2  A    between atoms: _3  and  _4
REMARK    3  A    between atoms: _3  and  _6
REMARK    4  A    between atoms: _6  and  _7
REMARK    5  A    between atoms: _17  and  _19
REMARK    6  A    between atoms: _19  and  _20
REMARK    7  A    between atoms: _19  and  _22
REMARK    8  A    between atoms: _22  and  _23
REMARK    9  A    between atoms: _28  and  _29
REMARK   10  A    between atoms: _31  and  _33
REMARK   11  A    between atoms: _33  and  _34
REMARK   12  A    between atoms: _33  and  _36
REMARK   13  A    between atoms: _36  and  _37
REMARK   14  A    between atoms: _39  and  _41
REMARK   15  A    between atoms: _41  and  _42
REMARK   16  A    between atoms: _41  and  _44
REMARK   17  A    between atoms: _44  and  _45
REMARK   18  A    between atoms: _50  and  _52
REMARK   19  A    between atoms: _52  and  _53
REMARK   20  A    between atoms: _52  and  _55
REMARK   21  A    between atoms: _55  and  _56
REMARK   22  A    between atoms: _61  and  _63
REMARK   23  A    between atoms: _63  and  _64
REMARK   24  A    between atoms: _67  and  _69
REMARK   25  A    between atoms: _69  and  _70
REMARK   26  A    between atoms: _69  and  _72
REMARK   27  A    between atoms: _72  and  _73
REMARK   28  A    between atoms: _78  and  _80
REMARK   29  A    between atoms: _80  and  _81
REMARK   30  A    between atoms: _80  and  _83
REMARK   31  A    between atoms: _83  and  _84
REMARK   32  A    between atoms: _87  and  _89
REMARK   33  A    between atoms: _89  and  _90
REMARK   34  A    between atoms: _89  and  _92
REMARK   35  A    between atoms: _92  and  _93
REMARK   36  A    between atoms: _93  and  _94
REMARK   37  A    between atoms: _99  and  _101
REMARK   38  A    between atoms: _112  and  _115
REMARK   39  A    between atoms: _115  and  _116
REMARK   40  A    between atoms: _124  and  _125
REMARK   41  A    between atoms: _133  and  _135
REMARK   42  A    between atoms: _135  and  _136
REMARK   43  A    between atoms: _135  and  _138
REMARK   44  A    between atoms: _138  and  _139
REMARK   45  A    between atoms: _139  and  _140
REMARK   46  A    between atoms: _143  and  _145
REMARK   47  A    between atoms: _145  and  _146
REMARK   48  A    between atoms: _145  and  _148
REMARK   49  A    between atoms: _148  and  _149
REMARK   50  A    between atoms: _154  and  _156
REMARK   51  A    between atoms: _156  and  _157
REMARK   52  A    between atoms: _156  and  _159
REMARK   53  A    between atoms: _159  and  _160
REMARK   54  A    between atoms: _160  and  _161
REMARK   55  A    between atoms: _164  and  _166
REMARK   56  A    between atoms: _166  and  _167
REMARK   57  A    between atoms: _166  and  _169
REMARK   58  A    between atoms: _169  and  _170
REMARK   59  A    between atoms: _173  and  _175
REMARK   60  A    between atoms: _175  and  _176
REMARK   61  A    between atoms: _175  and  _178
REMARK   62  A    between atoms: _178  and  _179
REMARK   63  A    between atoms: _180  and  ZN_390
REMARK   64  A    between atoms: _184  and  _186
REMARK   65  A    between atoms: _186  and  _187
REMARK   66  A    between atoms: _186  and  _189
REMARK   67  A    between atoms: _189  and  _190
REMARK   68  A    between atoms: _193  and  _195
REMARK   69  A    between atoms: _195  and  _196
REMARK   70  A    between atoms: _195  and  _198
REMARK   71  A    between atoms: _201  and  _203
REMARK   72  A    between atoms: _203  and  _204
REMARK   73  A    between atoms: _203  and  _206
REMARK   74  A    between atoms: _206  and  _207
REMARK   75  A    between atoms: _212  and  _214
REMARK   76  A    between atoms: _214  and  _215
REMARK   77  A    between atoms: _214  and  _217
REMARK   78  A    between atoms: _217  and  _218
REMARK   79  A    between atoms: _224  and  _226
REMARK   80  A    between atoms: _226  and  _227
REMARK   81  A    between atoms: _226  and  _229
REMARK   82  A    between atoms: _232  and  _234
REMARK   83  A    between atoms: _234  and  _235
REMARK   84  A    between atoms: _234  and  _237
REMARK   85  A    between atoms: _237  and  _238
REMARK   86  A    between atoms: _241  and  _243
REMARK   87  A    between atoms: _243  and  _244
REMARK   88  A    between atoms: _247  and  _249
REMARK   89  A    between atoms: _249  and  _250
REMARK   90  A    between atoms: _249  and  _252
REMARK   91  A    between atoms: _255  and  _257
REMARK   92  A    between atoms: _257  and  _258
REMARK   93  A    between atoms: _257  and  _260
REMARK   94  A    between atoms: _260  and  _261
REMARK   95  A    between atoms: _264  and  _266
REMARK   96  A    between atoms: _266  and  _267
REMARK   97  A    between atoms: _266  and  _269
REMARK   98  A    between atoms: _269  and  _270
REMARK   99  A    between atoms: _272  and  _274
REMARK  100  A    between atoms: _274  and  _275
REMARK  101  A    between atoms: _274  and  _277
REMARK  102  A    between atoms: _277  and  _278
REMARK  103  A    between atoms: _281  and  _283
REMARK  104  A    between atoms: _283  and  _284
REMARK  105  A    between atoms: _283  and  _286
REMARK  106  A    between atoms: _286  and  _287
REMARK  107  A    between atoms: _290  and  _292
REMARK  108  A    between atoms: _292  and  _293
REMARK  109  A    between atoms: _292  and  _295
REMARK  110  A    between atoms: _295  and  _296
REMARK  111  A    between atoms: _300  and  _301
REMARK  112  A    between atoms: _307  and  _308
REMARK  113  A    between atoms: _313  and  _315
REMARK  114  A    between atoms: _315  and  _316
REMARK  115  A    between atoms: _315  and  _318
REMARK  116  A    between atoms: _318  and  _319
REMARK  117  A    between atoms: _322  and  _324
REMARK  118  A    between atoms: _324  and  _325
REMARK  119  A    between atoms: _324  and  _327
REMARK  120  A    between atoms: _327  and  _328
REMARK  121  A    between atoms: _331  and  _333
REMARK  122  A    between atoms: _333  and  _334
REMARK  123  A    between atoms: _333  and  _336
REMARK  124  A    between atoms: _338  and  _340
REMARK  125  A    between atoms: _340  and  _341
REMARK  126  A    between atoms: _340  and  _343
REMARK  127  A    between atoms: _346  and  _348
REMARK  128  A    between atoms: _348  and  _349
REMARK  129  A    between atoms: _348  and  _351
REMARK  130  A    between atoms: _351  and  _352
REMARK  131  A    between atoms: _362  and  _364
REMARK  132  A    between atoms: _364  and  _365
REMARK  133  A    between atoms: _364  and  _367
REMARK  134  A    between atoms: _367  and  _368
REMARK  135  A    between atoms: _373  and  _375
REMARK  136  A    between atoms: _375  and  _376
REMARK  137  A    between atoms: _375  and  _378
REMARK  138  A    between atoms: _378  and  _379
REMARK  139  A    between atoms: _379  and  _380
REMARK  140  A    between atoms: _380  and  _381
REMARK                            x       y       z     vdW  Elec       q    Type
REMARK                         _______ _______ _______ _____ _____    ______ ____
ROOT
ATOM      1  C   THR A   4      21.930   0.922  16.288  0.00  0.00    +0.246 C 
ATOM      2  O   THR A   4      21.427   1.904  16.839  0.00  0.00    -0.273 OA
ATOM      3  N   PRO A   5      23.210   0.918  15.863  0.00  0.00    -0.272 N 
ATOM      4  CA  PRO A   5      23.959   2.199  15.908  0.00  0.00    +0.152 C 
ATOM      5  CB  PRO A   5      25.217   1.890  15.101  0.00  0.00    +0.031 C 
ATOM      6  CG  PRO A   5      25.410   0.292  15.385  0.00  0.00    +0.024 C 
ATOM      7  CD  PRO A   5      24.002  -0.214  15.320  0.00  0.00    +0.094 C 
ENDROOT
BRANCH   4   8
ATOM      8  C   PRO A   5      23.107   3.350  15.356  0.00  0.00    +0.244 C 
ATOM      9  N   PRO A   6      23.147   4.506  15.998  0.00  0.00    -0.272 N 
ATOM     10  CA  PRO A   6      24.037   4.925  17.061  0.00  0.00    +0.152 C 
ATOM     11  CB  PRO A   6      24.079   6.457  16.900  0.00  0.00    +0.031 C 
ATOM     12  CG  PRO A   6      22.722   6.787  16.292  0.00  0.00    +0.024 C 
ATOM     13  CD  PRO A   6      22.413   5.636  15.388  0.00  0.00    +0.094 C 
ATOM     14  O   PRO A   5      22.489   3.220  14.242  0.00  0.00    -0.273 OA
BRANCH  10  15
ATOM     15  C   PRO A   6      23.682   4.533  18.512  0.00  0.00    +0.241 C 
ATOM     16  O   PRO A   6      24.322   5.027  19.476  0.00  0.00    -0.273 OA
ATOM     17  N   LEU A   7      22.673   3.633  18.651  0.00  0.00    -0.297 N 
ATOM     18  H   LEU A   7      22.101   3.376  17.822  0.00  0.00    +0.150 HD
BRANCH  17  19
ATOM     19  CA  LEU A   7      22.378   3.022  19.940  0.00  0.00    +0.149 C 
BRANCH  19  20
ATOM     20  C   LEU A   7      22.001   4.063  21.010  0.00  0.00    +0.241 C 
ATOM     21  O   LEU A   7      22.215   3.818  22.219  0.00  0.00    -0.273 OA
ATOM     22  N   LEU A   8      21.417   5.169  20.529  0.00  0.00    -0.298 N 
ATOM     23  H   LEU A   8      21.142   5.231  19.528  0.00  0.00    +0.150 HD
BRANCH  22  24
ATOM     24  CA  LEU A   8      21.170   6.304  21.452  0.00  0.00    +0.137 C 
BRANCH  24  25
ATOM     25  C   LEU A   8      20.089   5.917  22.550  0.00  0.00    +0.227 C 
ATOM     26  O   LEU A   8      19.091   5.275  22.280  0.00  0.00    -0.286 OA
ENDBRANCH  24  25
BRANCH  24  27
ATOM     27  CB  LEU A   8      20.667   7.534  20.730  0.00  0.00    +0.028 C 
BRANCH  27  28
ATOM     28  CG  LEU A   8      21.720   8.051  19.749  0.00  0.00    +0.002 C 
ATOM     29  CD2 LEU A   8      22.919   8.681  20.522  0.00  0.00    +0.000 C 
ATOM     30  CD1 LEU A   8      21.047   9.043  18.758  0.00  0.00    +0.000 C 
ENDBRANCH  27  28
ENDBRANCH  24  27
ENDBRANCH  22  24
ENDBRANCH  19  20
BRANCH  19  31
ATOM     31  CB  LEU A   7      23.511   2.150  20.460  0.00  0.00    +0.029 C 
BRANCH  31  32
ATOM     32  CG  LEU A   7      23.899   1.022  19.509  0.00  0.00    +0.002 C 
ATOM     33  CD2 LEU A   7      25.250   0.283  20.029  0.00  0.00    +0.000 C 
ATOM     34  CD1 LEU A   7      22.751  -0.041  19.345  0.00  0.00    +0.000 C 
ENDBRANCH  31  32
ENDBRANCH  19  31
ENDBRANCH  17  19
ENDBRANCH  10  15
ENDBRANCH   4   8
BRANCH   1  35
ATOM     35  CA  THR A   4      21.072  -0.281  15.994  0.00  0.00    +0.176 C 
BRANCH  35  38
ATOM     36  C   THR A   3      19.892  -1.450  17.820  0.00  0.00    +0.243 C 
ATOM     37  O   THR A   3      20.540  -2.483  17.630  0.00  0.00    -0.273 OA
ATOM     38  N   THR A   4      20.014  -0.361  17.032  0.00  0.00    -0.295 N 
ATOM     39  H   THR A   4      19.356   0.435  17.154  0.00  0.00    +0.150 HD
BRANCH  36  40
ATOM     40  CA  THR A   3      18.916  -1.368  18.973  0.00  0.00    +0.176 C 
BRANCH  40  43
ATOM     41  C   LEU A   2      18.591   0.874  19.743  0.00  0.00    +0.241 C 
ATOM     42  O   LEU A   2      19.599   0.752  20.444  0.00  0.00    -0.273 OA
ATOM     43  N   THR A   3      18.163  -0.101  18.963  0.00  0.00    -0.295 N 
ATOM     44  H   THR A   3      17.323   0.021  18.362  0.00  0.00    +0.150 HD
BRANCH  41  45
ATOM     45  CA  LEU A   2      17.847   2.208  19.637  0.00  0.00    +0.149 C 
BRANCH  45  48
ATOM     46  C   SER A   1      17.385   2.163  22.040  0.00  0.00    +0.241 C 
ATOM     47  O   SER A   1      16.645   1.195  21.911  0.00  0.00    -0.274 OA
ATOM     48  N   LEU A   2      17.925   2.817  20.998  0.00  0.00    -0.297 N 
ATOM     49  H   LEU A   2      18.391   3.736  21.138  0.00  0.00    +0.150 HD
BRANCH  46  50
ATOM     50  CA  SER A   1      17.808   2.630  23.445  0.00  0.00    +0.174 C 
BRANCH  50  51
ATOM     51  N   SER A   1      17.036   1.942  24.506  0.00  0.00    -0.236 NA
ATOM     52  H   SER A   1      16.827   0.928  24.412  0.00  0.00    +0.142 HD
ENDBRANCH  50  51
BRANCH  50  53
ATOM     53  CB  SER A   1      19.289   2.192  23.581  0.00  0.00    +0.163 C 
BRANCH  53  54
ATOM     54  OG  SER A   1      19.564   0.801  23.200  0.00  0.00    -0.380 OA
ATOM     55  H   SER A   1      19.314   0.664  22.252  0.00  0.00    +0.211 HD
ENDBRANCH  53  54
ENDBRANCH  50  53
ENDBRANCH  46  50
ENDBRANCH  45  48
BRANCH  45  56
ATOM     56  CB  LEU A   2      18.645   3.045  18.643  0.00  0.00    +0.029 C 
BRANCH  56  57
ATOM     57  CG  LEU A   2      18.424   4.567  18.561  0.00  0.00    +0.002 C 
ATOM     58  CD2 LEU A   2      17.086   5.161  18.778  0.00  0.00    +0.000 C 
ATOM     59  CD1 LEU A   2      19.062   5.145  17.196  0.00  0.00    +0.000 C 
ENDBRANCH  56  57
ENDBRANCH  45  56
ENDBRANCH  41  45
ENDBRANCH  40  43
BRANCH  40  60
ATOM     60  CB  THR A   3      17.942  -2.537  18.813  0.00  0.00    +0.137 C 
ATOM     61  CG2 THR A   3      16.914  -2.541  19.942  0.00  0.00    +0.034 C 
BRANCH  60  62
ATOM     62  OG1 THR A   3      17.270  -2.412  17.550  0.00  0.00    -0.382 OA
ATOM     63  HG1 THR A   3      16.637  -3.165  17.438  0.00  0.00    +0.210 HD
ENDBRANCH  60  62
ENDBRANCH  40  60
ENDBRANCH  36  40
ENDBRANCH  35  38
BRANCH  35  64
ATOM     64  CB  THR A   4      20.408  -0.118  14.626  0.00  0.00    +0.137 C 
ATOM     65  CG2 THR A   4      19.866  -1.426  14.121  0.00  0.00    +0.034 C 
BRANCH  64  66
ATOM     66  OG1 THR A   4      19.303   0.792  14.760  0.00  0.00    -0.382 OA
ATOM     67  HG1 THR A   4      19.635   1.668  15.081  0.00  0.00    +0.210 HD
ENDBRANCH  64  66
ENDBRANCH  35  64
ENDBRANCH   1  35
TORSDOF 26
REMARK  Name = ../refined-set-2016/4q7p/4q7p_pocket.pdb
REMARK  140 active torsions:
REMARK  status: ('A' for Active; 'I' for Inactive)
REMARK    1  A    between atoms: _1  and  _3
REMARK    2  A    between atoms: _3  and  _4
REMARK    3  A    between atoms: _3  and  _6
REMARK    4  A    between atoms: _6  and  _7
REMARK    5  A    between atoms: _17  and  _19
REMARK    6  A    between atoms: _19  and  _20
REMARK    7  A    between atoms: _19  and  _22
REMARK    8  A    between atoms: _22  and  _23
REMARK    9  A    between atoms: _28  and  _29
REMARK   10  A    between atoms: _31  and  _33
REMARK   11  A    between atoms: _33  and  _34
REMARK   12  A    between atoms: _33  and  _36
REMARK   13  A    between atoms: _36  and  _37
REMARK   14  A    between atoms: _39  and  _41
REMARK   15  A    between atoms: _41  and  _42
REMARK   16  A    between atoms: _41  and  _44
REMARK   17  A    between atoms: _44  and  _45
REMARK   18  A    between atoms: _50  and  _52
REMARK   19  A    between atoms: _52  and  _53
REMARK   20  A    between atoms: _52  and  _55
REMARK   21  A    between atoms: _55  and  _56
REMARK   22  A    between atoms: _61  and  _63
REMARK   23  A    between atoms: _63  and  _64
REMARK   24  A    between atoms: _67  and  _69
REMARK   25  A    between atoms: _69  and  _70
REMARK   26  A    between atoms: _69  and  _72
REMARK   27  A    between atoms: _72  and  _73
REMARK   28  A    between atoms: _78  and  _80
REMARK   29  A    between atoms: _80  and  _81
REMARK   30  A    between atoms: _80  and  _83
REMARK   31  A    between atoms: _83  and  _84
REMARK   32  A    between atoms: _87  and  _89
REMARK   33  A    between atoms: _89  and  _90
REMARK   34  A    between atoms: _89  and  _92
REMARK   35  A    between atoms: _92  and  _93
REMARK   36  A    between atoms: _93  and  _94
REMARK   37  A    between atoms: _99  and  _101
REMARK   38  A    between atoms: _112  and  _115
REMARK   39  A    between atoms: _115  and  _116
REMARK   40  A    between atoms: _124  and  _125
REMARK   41  A    between atoms: _133  and  _135
REMARK   42  A    between atoms: _135  and  _136
REMARK   43  A    between atoms: _135  and  _138
REMARK   44  A    between atoms: _138  and  _139
REMARK   45  A    between atoms: _139  and  _140
REMARK   46  A    between atoms: _143  and  _145
REMARK   47  A    between atoms: _145  and  _146
REMARK   48  A    between atoms: _145  and  _148
REMARK   49  A    between atoms: _148  and  _149
REMARK   50  A    between atoms: _154  and  _156
REMARK   51  A    between atoms: _156  and  _157
REMARK   52  A    between atoms: _156  and  _159
REMARK   53  A    between atoms: _159  and  _160
REMARK   54  A    between atoms: _160  and  _161
REMARK   55  A    between atoms: _164  and  _166
REMARK   56  A    between atoms: _166  and  _167
REMARK   57  A    between atoms: _166  and  _169
REMARK   58  A    between atoms: _169  and  _170
REMARK   59  A    between atoms: _173  and  _175
REMARK   60  A    between atoms: _175  and  _176
REMARK   61  A    between atoms: _175  and  _178
REMARK   62  A    between atoms: _178  and  _179
REMARK   63  A    between atoms: _180  and  ZN_390
REMARK   64  A    between atoms: _184  and  _186
REMARK   65  A    between atoms: _186  and  _187
REMARK   66  A    between atoms: _186  and  _189
REMARK   67  A    between atoms: _189  and  _190
REMARK   68  A    between atoms: _193  and  _195
REMARK   69  A    between atoms: _195  and  _196
REMARK   70  A    between atoms: _195  and  _198
REMARK   71  A    between atoms: _201  and  _203
REMARK   72  A    between atoms: _203  and  _204
REMARK   73  A    between atoms: _203  and  _206
REMARK   74  A    between atoms: _206  and  _207
REMARK   75  A    between atoms: _212  and  _214
REMARK   76  A    between atoms: _214  and  _215
REMARK   77  A    between atoms: _214  and  _217
REMARK   78  A    between atoms: _217  and  _218
REMARK   79  A    between atoms: _224  and  _226
REMARK   80  A    between atoms: _226  and  _227
REMARK   81  A    between atoms: _226  and  _229
REMARK   82  A    between atoms: _232  and  _234
REMARK   83  A    between atoms: _234  and  _235
REMARK   84  A    between atoms: _234  and  _237
REMARK   85  A    between atoms: _237  and  _238
REMARK   86  A    between atoms: _241  and  _243
REMARK   87  A    between atoms: _243  and  _244
REMARK   88  A    between atoms: _247  and  _249
REMARK   89  A    between atoms: _249  and  _250
REMARK   90  A    between atoms: _249  and  _252
REMARK   91  A    between atoms: _255  and  _257
REMARK   92  A    between atoms: _257  and  _258
REMARK   93  A    between atoms: _257  and  _260
REMARK   94  A    between atoms: _260  and  _261
REMARK   95  A    between atoms: _264  and  _266
REMARK   96  A    between atoms: _266  and  _267
REMARK   97  A    between atoms: _266  and  _269
REMARK   98  A    between atoms: _269  and  _270
REMARK   99  A    between atoms: _272  and  _274
REMARK  100  A    between atoms: _274  and  _275
REMARK  101  A    between atoms: _274  and  _277
REMARK  102  A    between atoms: _277  and  _278
REMARK  103  A    between atoms: _281  and  _283
REMARK  104  A    between atoms: _283  and  _284
REMARK  105  A    between atoms: _283  and  _286
REMARK  106  A    between atoms: _286  and  _287
REMARK  107  A    between atoms: _290  and  _292
REMARK  108  A    between atoms: _292  and  _293
REMARK  109  A    between atoms: _292  and  _295
REMARK  110  A    between atoms: _295  and  _296
REMARK  111  A    between atoms: _300  and  _301
REMARK  112  A    between atoms: _307  and  _308
REMARK  113  A    between atoms: _313  and  _315
REMARK  114  A    between atoms: _315  and  _316
REMARK  115  A    between atoms: _315  and  _318
REMARK  116  A    between atoms: _318  and  _319
REMARK  117  A    between atoms: _322  and  _324
REMARK  118  A    between atoms: _324  and  _325
REMARK  119  A    between atoms: _324  and  _327
REMARK  120  A    between atoms: _327  and  _328
REMARK  121  A    between atoms: _331  and  _333
REMARK  122  A    between atoms: _333  and  _334
REMARK  123  A    between atoms: _333  and  _336
REMARK  124  A    between atoms: _338  and  _340
REMARK  125  A    between atoms: _340  and  _341
REMARK  126  A    between atoms: _340  and  _343
REMARK  127  A    between atoms: _346  and  _348
REMARK  128  A    between atoms: _348  and  _349
REMARK  129  A    between atoms: _348  and  _351
REMARK  130  A    between atoms: _351  and  _352
REMARK  131  A    between atoms: _362  and  _364
REMARK  132  A    between atoms: _364  and  _365
REMARK  133  A    between atoms: _364  and  _367
REMARK  134  A    between atoms: _367  and  _368
REMARK  135  A    between atoms: _373  and  _375
REMARK  136  A    between atoms: _375  and  _376
REMARK  137  A    between atoms: _375  and  _378
REMARK  138  A    between atoms: _378  and  _379
REMARK  139  A    between atoms: _379  and  _380
REMARK  140  A    between atoms: _380  and  _381
REMARK                            x       y       z     vdW  Elec       q    Type
REMARK                         _______ _______ _______ _____ _____    ______ ____
ROOT
ATOM      1  C   CYS A   1      14.897   7.310  24.065  0.00  0.00    +0.239 C 
ATOM      2  N   VAL A   2      14.846   5.976  24.254  0.00  0.00    -0.298 N 
ATOM      3  H   VAL A   2      15.664   5.458  24.633  0.00  0.00    +0.150 HD
ATOM      4  O   CYS A   1      13.888   8.007  23.961  0.00  0.00    -0.274 OA
ENDROOT
BRANCH   1   5
ATOM      5  CA  CYS A   1      16.254   7.945  23.940  0.00  0.00    +0.156 C 
BRANCH   5   6
ATOM      6  N   CYS A   1      17.349   6.915  24.056  0.00  0.00    -0.237 NA
ATOM      7  H   CYS A   1      17.409   6.146  23.358  0.00  0.00    +0.142 HD
ENDBRANCH   5   6
BRANCH   5   8
ATOM      8  CB  CYS A   1      16.159   8.601  22.568  0.00  0.00    +0.095 C 
ATOM      9  SG  CYS A   1      17.635   8.862  21.757  0.00  0.00    -0.080 S 
ENDBRANCH   5   8
ENDBRANCH   1   5
BRANCH   2  10
ATOM     10  CA  VAL A   2      13.594   5.271  23.907  0.00  0.00    +0.137 C 
BRANCH  10  11
ATOM     11  CB  VAL A   2      13.884   3.968  23.079  0.00  0.00    +0.026 C 
ATOM     12  CG2 VAL A   2      12.537   3.317  22.690  0.00  0.00    +0.002 C 
ATOM     13  CG1 VAL A   2      14.704   4.330  21.759  0.00  0.00    +0.002 C 
ENDBRANCH  10  11
BRANCH  10  14
ATOM     14  C   VAL A   2      12.806   4.822  25.121  0.00  0.00    +0.227 C 
ATOM     15  O   VAL A   2      13.330   4.110  25.975  0.00  0.00    -0.286 OA
ENDBRANCH  10  14
ENDBRANCH   2  10
TORSDOF 6
REMARK  Name = ../refined-set-2016/4q7p/4q7p_pocket.pdb
REMARK  140 active torsions:
REMARK  status: ('A' for Active; 'I' for Inactive)
REMARK    1  A    between atoms: _1  and  _3
REMARK    2  A    between atoms: _3  and  _4
REMARK    3  A    between atoms: _3  and  _6
REMARK    4  A    between atoms: _6  and  _7
REMARK    5  A    between atoms: _17  and  _19
REMARK    6  A    between atoms: _19  and  _20
REMARK    7  A    between atoms: _19  and  _22
REMARK    8  A    between atoms: _22  and  _23
REMARK    9  A    between atoms: _28  and  _29
REMARK   10  A    between atoms: _31  and  _33
REMARK   11  A    between atoms: _33  and  _34
REMARK   12  A    between atoms: _33  and  _36
REMARK   13  A    between atoms: _36  and  _37
REMARK   14  A    between atoms: _39  and  _41
REMARK   15  A    between atoms: _41  and  _42
REMARK   16  A    between atoms: _41  and  _44
REMARK   17  A    between atoms: _44  and  _45
REMARK   18  A    between atoms: _50  and  _52
REMARK   19  A    between atoms: _52  and  _53
REMARK   20  A    between atoms: _52  and  _55
REMARK   21  A    between atoms: _55  and  _56
REMARK   22  A    between atoms: _61  and  _63
REMARK   23  A    between atoms: _63  and  _64
REMARK   24  A    between atoms: _67  and  _69
REMARK   25  A    between atoms: _69  and  _70
REMARK   26  A    between atoms: _69  and  _72
REMARK   27  A    between atoms: _72  and  _73
REMARK   28  A    between atoms: _78  and  _80
REMARK   29  A    between atoms: _80  and  _81
REMARK   30  A    between atoms: _80  and  _83
REMARK   31  A    between atoms: _83  and  _84
REMARK   32  A    between atoms: _87  and  _89
REMARK   33  A    between atoms: _89  and  _90
REMARK   34  A    between atoms: _89  and  _92
REMARK   35  A    between atoms: _92  and  _93
REMARK   36  A    between atoms: _93  and  _94
REMARK   37  A    between atoms: _99  and  _101
REMARK   38  A    between atoms: _112  and  _115
REMARK   39  A    between atoms: _115  and  _116
REMARK   40  A    between atoms: _124  and  _125
REMARK   41  A    between atoms: _133  and  _135
REMARK   42  A    between atoms: _135  and  _136
REMARK   43  A    between atoms: _135  and  _138
REMARK   44  A    between atoms: _138  and  _139
REMARK   45  A    between atoms: _139  and  _140
REMARK   46  A    between atoms: _143  and  _145
REMARK   47  A    between atoms: _145  and  _146
REMARK   48  A    between atoms: _145  and  _148
REMARK   49  A    between atoms: _148  and  _149
REMARK   50  A    between atoms: _154  and  _156
REMARK   51  A    between atoms: _156  and  _157
REMARK   52  A    between atoms: _156  and  _159
REMARK   53  A    between atoms: _159  and  _160
REMARK   54  A    between atoms: _160  and  _161
REMARK   55  A    between atoms: _164  and  _166
REMARK   56  A    between atoms: _166  and  _167
REMARK   57  A    between atoms: _166  and  _169
REMARK   58  A    between atoms: _169  and  _170
REMARK   59  A    between atoms: _173  and  _175
REMARK   60  A    between atoms: _175  and  _176
REMARK   61  A    between atoms: _175  and  _178
REMARK   62  A    between atoms: _178  and  _179
REMARK   63  A    between atoms: _180  and  ZN_390
REMARK   64  A    between atoms: _184  and  _186
REMARK   65  A    between atoms: _186  and  _187
REMARK   66  A    between atoms: _186  and  _189
REMARK   67  A    between atoms: _189  and  _190
REMARK   68  A    between atoms: _193  and  _195
REMARK   69  A    between atoms: _195  and  _196
REMARK   70  A    between atoms: _195  and  _198
REMARK   71  A    between atoms: _201  and  _203
REMARK   72  A    between atoms: _203  and  _204
REMARK   73  A    between atoms: _203  and  _206
REMARK   74  A    between atoms: _206  and  _207
REMARK   75  A    between atoms: _212  and  _214
REMARK   76  A    between atoms: _214  and  _215
REMARK   77  A    between atoms: _214  and  _217
REMARK   78  A    between atoms: _217  and  _218
REMARK   79  A    between atoms: _224  and  _226
REMARK   80  A    between atoms: _226  and  _227
REMARK   81  A    between atoms: _226  and  _229
REMARK   82  A    between atoms: _232  and  _234
REMARK   83  A    between atoms: _234  and  _235
REMARK   84  A    between atoms: _234  and  _237
REMARK   85  A    between atoms: _237  and  _238
REMARK   86  A    between atoms: _241  and  _243
REMARK   87  A    between atoms: _243  and  _244
REMARK   88  A    between atoms: _247  and  _249
REMARK   89  A    between atoms: _249  and  _250
REMARK   90  A    between atoms: _249  and  _252
REMARK   91  A    between atoms: _255  and  _257
REMARK   92  A    between atoms: _257  and  _258
REMARK   93  A    between atoms: _257  and  _260
REMARK   94  A    between atoms: _260  and  _261
REMARK   95  A    between atoms: _264  and  _266
REMARK   96  A    between atoms: _266  and  _267
REMARK   97  A    between atoms: _266  and  _269
REMARK   98  A    between atoms: _269  and  _270
REMARK   99  A    between atoms: _272  and  _274
REMARK  100  A    between atoms: _274  and  _275
REMARK  101  A    between atoms: _274  and  _277
REMARK  102  A    between atoms: _277  and  _278
REMARK  103  A    between atoms: _281  and  _283
REMARK  104  A    between atoms: _283  and  _284
REMARK  105  A    between atoms: _283  and  _286
REMARK  106  A    between atoms: _286  and  _287
REMARK  107  A    between atoms: _290  and  _292
REMARK  108  A    between atoms: _292  and  _293
REMARK  109  A    between atoms: _292  and  _295
REMARK  110  A    between atoms: _295  and  _296
REMARK  111  A    between atoms: _300  and  _301
REMARK  112  A    between atoms: _307  and  _308
REMARK  113  A    between atoms: _313  and  _315
REMARK  114  A    between atoms: _315  and  _316
REMARK  115  A    between atoms: _315  and  _318
REMARK  116  A    between atoms: _318  and  _319
REMARK  117  A    between atoms: _322  and  _324
REMARK  118  A    between atoms: _324  and  _325
REMARK  119  A    between atoms: _324  and  _327
REMARK  120  A    between atoms: _327  and  _328
REMARK  121  A    between atoms: _331  and  _333
REMARK  122  A    between atoms: _333  and  _334
REMARK  123  A    between atoms: _333  and  _336
REMARK  124  A    between atoms: _338  and  _340
REMARK  125  A    between atoms: _340  and  _341
REMARK  126  A    between atoms: _340  and  _343
REMARK  127  A    between atoms: _346  and  _348
REMARK  128  A    between atoms: _348  and  _349
REMARK  129  A    between atoms: _348  and  _351
REMARK  130  A    between atoms: _351  and  _352
REMARK  131  A    between atoms: _362  and  _364
REMARK  132  A    between atoms: _364  and  _365
REMARK  133  A    between atoms: _364  and  _367
REMARK  134  A    between atoms: _367  and  _368
REMARK  135  A    between atoms: _373  and  _375
REMARK  136  A    between atoms: _375  and  _376
REMARK  137  A    between atoms: _375  and  _378
REMARK  138  A    between atoms: _378  and  _379
REMARK  139  A    between atoms: _379  and  _380
REMARK  140  A    between atoms: _380  and  _381
REMARK                            x       y       z     vdW  Elec       q    Type
REMARK                         _______ _______ _______ _____ _____    ______ ____
ROOT
ATOM      1  CG  TRP A   1      12.159  -0.188  24.212  0.00  0.00    -0.002 A 
ATOM      2  CD1 TRP A   1      13.334   0.394  24.405  0.00  0.00    +0.068 A 
ATOM      3  NE1 TRP A   1      14.086   0.377  23.208  0.00  0.00    -0.352 N 
ATOM      4  HE1 TRP A   1      15.046   0.758  23.091  0.00  0.00    +0.166 HD
ATOM      5  CE2 TRP A   1      13.332  -0.232  22.216  0.00  0.00    +0.056 A 
ATOM      6  CZ2 TRP A   1      13.659  -0.527  20.885  0.00  0.00    +0.017 A 
ATOM      7  CH2 TRP A   1      12.685  -1.166  20.129  0.00  0.00    +0.001 A 
ATOM      8  CZ3 TRP A   1      11.419  -1.516  20.699  0.00  0.00    +0.000 A 
ATOM      9  CE3 TRP A   1      11.114  -1.206  22.004  0.00  0.00    +0.001 A 
ATOM     10  CD2 TRP A   1      12.103  -0.606  22.802  0.00  0.00    +0.013 A 
ENDROOT
BRANCH   1  11
ATOM     11  CB  TRP A   1      10.994  -0.293  25.196  0.00  0.00    +0.053 C 
BRANCH  11  12
ATOM     12  CA  TRP A   1      10.007   0.937  24.952  0.00  0.00    +0.137 C 
BRANCH  12  13
ATOM     13  N   TRP A   1      10.451   2.118  25.680  0.00  0.00    -0.239 NA
ATOM     14  H   TRP A   1      11.046   2.023  26.528  0.00  0.00    +0.142 HD
ENDBRANCH  12  13
BRANCH  12  15
ATOM     15  C   TRP A   1       8.634   0.489  25.437  0.00  0.00    +0.224 C 
ATOM     16  O   TRP A   1       8.390   0.451  26.634  0.00  0.00    -0.287 OA
ENDBRANCH  12  15
ENDBRANCH  11  12
ENDBRANCH   1  11
TORSDOF 4
REMARK  Name = ../refined-set-2016/4q7p/4q7p_pocket.pdb
REMARK  140 active torsions:
REMARK  status: ('A' for Active; 'I' for Inactive)
REMARK    1  A    between atoms: _1  and  _3
REMARK    2  A    between atoms: _3  and  _4
REMARK    3  A    between atoms: _3  and  _6
REMARK    4  A    between atoms: _6  and  _7
REMARK    5  A    between atoms: _17  and  _19
REMARK    6  A    between atoms: _19  and  _20
REMARK    7  A    between atoms: _19  and  _22
REMARK    8  A    between atoms: _22  and  _23
REMARK    9  A    between atoms: _28  and  _29
REMARK   10  A    between atoms: _31  and  _33
REMARK   11  A    between atoms: _33  and  _34
REMARK   12  A    between atoms: _33  and  _36
REMARK   13  A    between atoms: _36  and  _37
REMARK   14  A    between atoms: _39  and  _41
REMARK   15  A    between atoms: _41  and  _42
REMARK   16  A    between atoms: _41  and  _44
REMARK   17  A    between atoms: _44  and  _45
REMARK   18  A    between atoms: _50  and  _52
REMARK   19  A    between atoms: _52  and  _53
REMARK   20  A    between atoms: _52  and  _55
REMARK   21  A    between atoms: _55  and  _56
REMARK   22  A    between atoms: _61  and  _63
REMARK   23  A    between atoms: _63  and  _64
REMARK   24  A    between atoms: _67  and  _69
REMARK   25  A    between atoms: _69  and  _70
REMARK   26  A    between atoms: _69  and  _72
REMARK   27  A    between atoms: _72  and  _73
REMARK   28  A    between atoms: _78  and  _80
REMARK   29  A    between atoms: _80  and  _81
REMARK   30  A    between atoms: _80  and  _83
REMARK   31  A    between atoms: _83  and  _84
REMARK   32  A    between atoms: _87  and  _89
REMARK   33  A    between atoms: _89  and  _90
REMARK   34  A    between atoms: _89  and  _92
REMARK   35  A    between atoms: _92  and  _93
REMARK   36  A    between atoms: _93  and  _94
REMARK   37  A    between atoms: _99  and  _101
REMARK   38  A    between atoms: _112  and  _115
REMARK   39  A    between atoms: _115  and  _116
REMARK   40  A    between atoms: _124  and  _125
REMARK   41  A    between atoms: _133  and  _135
REMARK   42  A    between atoms: _135  and  _136
REMARK   43  A    between atoms: _135  and  _138
REMARK   44  A    between atoms: _138  and  _139
REMARK   45  A    between atoms: _139  and  _140
REMARK   46  A    between atoms: _143  and  _145
REMARK   47  A    between atoms: _145  and  _146
REMARK   48  A    between atoms: _145  and  _148
REMARK   49  A    between atoms: _148  and  _149
REMARK   50  A    between atoms: _154  and  _156
REMARK   51  A    between atoms: _156  and  _157
REMARK   52  A    between atoms: _156  and  _159
REMARK   53  A    between atoms: _159  and  _160
REMARK   54  A    between atoms: _160  and  _161
REMARK   55  A    between atoms: _164  and  _166
REMARK   56  A    between atoms: _166  and  _167
REMARK   57  A    between atoms: _166  and  _169
REMARK   58  A    between atoms: _169  and  _170
REMARK   59  A    between atoms: _173  and  _175
REMARK   60  A    between atoms: _175  and  _176
REMARK   61  A    between atoms: _175  and  _178
REMARK   62  A    between atoms: _178  and  _179
REMARK   63  A    between atoms: _180  and  ZN_390
REMARK   64  A    between atoms: _184  and  _186
REMARK   65  A    between atoms: _186  and  _187
REMARK   66  A    between atoms: _186  and  _189
REMARK   67  A    between atoms: _189  and  _190
REMARK   68  A    between atoms: _193  and  _195
REMARK   69  A    between atoms: _195  and  _196
REMARK   70  A    between atoms: _195  and  _198
REMARK   71  A    between atoms: _201  and  _203
REMARK   72  A    between atoms: _203  and  _204
REMARK   73  A    between atoms: _203  and  _206
REMARK   74  A    between atoms: _206  and  _207
REMARK   75  A    between atoms: _212  and  _214
REMARK   76  A    between atoms: _214  and  _215
REMARK   77  A    between atoms: _214  and  _217
REMARK   78  A    between atoms: _217  and  _218
REMARK   79  A    between atoms: _224  and  _226
REMARK   80  A    between atoms: _226  and  _227
REMARK   81  A    between atoms: _226  and  _229
REMARK   82  A    between atoms: _232  and  _234
REMARK   83  A    between atoms: _234  and  _235
REMARK   84  A    between atoms: _234  and  _237
REMARK   85  A    between atoms: _237  and  _238
REMARK   86  A    between atoms: _241  and  _243
REMARK   87  A    between atoms: _243  and  _244
REMARK   88  A    between atoms: _247  and  _249
REMARK   89  A    between atoms: _249  and  _250
REMARK   90  A    between atoms: _249  and  _252
REMARK   91  A    between atoms: _255  and  _257
REMARK   92  A    between atoms: _257  and  _258
REMARK   93  A    between atoms: _257  and  _260
REMARK   94  A    between atoms: _260  and  _261
REMARK   95  A    between atoms: _264  and  _266
REMARK   96  A    between atoms: _266  and  _267
REMARK   97  A    between atoms: _266  and  _269
REMARK   98  A    between atoms: _269  and  _270
REMARK   99  A    between atoms: _272  and  _274
REMARK  100  A    between atoms: _274  and  _275
REMARK  101  A    between atoms: _274  and  _277
REMARK  102  A    between atoms: _277  and  _278
REMARK  103  A    between atoms: _281  and  _283
REMARK  104  A    between atoms: _283  and  _284
REMARK  105  A    between atoms: _283  and  _286
REMARK  106  A    between atoms: _286  and  _287
REMARK  107  A    between atoms: _290  and  _292
REMARK  108  A    between atoms: _292  and  _293
REMARK  109  A    between atoms: _292  and  _295
REMARK  110  A    between atoms: _295  and  _296
REMARK  111  A    between atoms: _300  and  _301
REMARK  112  A    between atoms: _307  and  _308
REMARK  113  A    between atoms: _313  and  _315
REMARK  114  A    between atoms: _315  and  _316
REMARK  115  A    between atoms: _315  and  _318
REMARK  116  A    between atoms: _318  and  _319
REMARK  117  A    between atoms: _322  and  _324
REMARK  118  A    between atoms: _324  and  _325
REMARK  119  A    between atoms: _324  and  _327
REMARK  120  A    between atoms: _327  and  _328
REMARK  121  A    between atoms: _331  and  _333
REMARK  122  A    between atoms: _333  and  _334
REMARK  123  A    between atoms: _333  and  _336
REMARK  124  A    between atoms: _338  and  _340
REMARK  125  A    between atoms: _340  and  _341
REMARK  126  A    between atoms: _340  and  _343
REMARK  127  A    between atoms: _346  and  _348
REMARK  128  A    between atoms: _348  and  _349
REMARK  129  A    between atoms: _348  and  _351
REMARK  130  A    between atoms: _351  and  _352
REMARK  131  A    between atoms: _362  and  _364
REMARK  132  A    between atoms: _364  and  _365
REMARK  133  A    between atoms: _364  and  _367
REMARK  134  A    between atoms: _367  and  _368
REMARK  135  A    between atoms: _373  and  _375
REMARK  136  A    between atoms: _375  and  _376
REMARK  137  A    between atoms: _375  and  _378
REMARK  138  A    between atoms: _378  and  _379
REMARK  139  A    between atoms: _379  and  _380
REMARK  140  A    between atoms: _380  and  _381
REMARK                            x       y       z     vdW  Elec       q    Type
REMARK                         _______ _______ _______ _____ _____    ______ ____
ROOT
ATOM      1  CB  ASN A   1      19.042  -7.381  10.528  0.00  0.00    +0.110 C 
ENDROOT
BRANCH   1   2
ATOM      2  CG  ASN A   1      17.530  -7.602  10.204  0.00  0.00    +0.221 C 
ATOM      3  OD1 ASN A   1      16.882  -8.519  10.775  0.00  0.00    -0.275 OA
ATOM      4  ND2 ASN A   1      16.962  -6.679   9.370  0.00  0.00    -0.329 N 
ATOM      5 HD21 ASN A   1      15.940  -6.711   9.178  0.00  0.00    +0.145 HD
ATOM      6 HD22 ASN A   1      17.552  -5.945   8.928  0.00  0.00    +0.145 HD
ENDBRANCH   1   2
BRANCH   1   7
ATOM      7  CA  ASN A   1      19.570  -8.309  11.614  0.00  0.00    +0.142 C 
BRANCH   7   8
ATOM      8  N   ASN A   1      19.261  -9.734  11.306  0.00  0.00    -0.239 NA
ATOM      9  H   ASN A   1      18.361  -9.986  10.851  0.00  0.00    +0.142 HD
ENDBRANCH   7   8
BRANCH   7  10
ATOM     10  C   ASN A   1      19.018  -7.927  12.984  0.00  0.00    +0.225 C 
ATOM     11  O   ASN A   1      18.315  -6.882  13.113  0.00  0.00    -0.287 OA
ENDBRANCH   7  10
ENDBRANCH   1   7
TORSDOF 4
REMARK  Name = ../refined-set-2016/4q7p/4q7p_pocket.pdb
REMARK  140 active torsions:
REMARK  status: ('A' for Active; 'I' for Inactive)
REMARK    1  A    between atoms: _1  and  _3
REMARK    2  A    between atoms: _3  and  _4
REMARK    3  A    between atoms: _3  and  _6
REMARK    4  A    between atoms: _6  and  _7
REMARK    5  A    between atoms: _17  and  _19
REMARK    6  A    between atoms: _19  and  _20
REMARK    7  A    between atoms: _19  and  _22
REMARK    8  A    between atoms: _22  and  _23
REMARK    9  A    between atoms: _28  and  _29
REMARK   10  A    between atoms: _31  and  _33
REMARK   11  A    between atoms: _33  and  _34
REMARK   12  A    between atoms: _33  and  _36
REMARK   13  A    between atoms: _36  and  _37
REMARK   14  A    between atoms: _39  and  _41
REMARK   15  A    between atoms: _41  and  _42
REMARK   16  A    between atoms: _41  and  _44
REMARK   17  A    between atoms: _44  and  _45
REMARK   18  A    between atoms: _50  and  _52
REMARK   19  A    between atoms: _52  and  _53
REMARK   20  A    between atoms: _52  and  _55
REMARK   21  A    between atoms: _55  and  _56
REMARK   22  A    between atoms: _61  and  _63
REMARK   23  A    between atoms: _63  and  _64
REMARK   24  A    between atoms: _67  and  _69
REMARK   25  A    between atoms: _69  and  _70
REMARK   26  A    between atoms: _69  and  _72
REMARK   27  A    between atoms: _72  and  _73
REMARK   28  A    between atoms: _78  and  _80
REMARK   29  A    between atoms: _80  and  _81
REMARK   30  A    between atoms: _80  and  _83
REMARK   31  A    between atoms: _83  and  _84
REMARK   32  A    between atoms: _87  and  _89
REMARK   33  A    between atoms: _89  and  _90
REMARK   34  A    between atoms: _89  and  _92
REMARK   35  A    between atoms: _92  and  _93
REMARK   36  A    between atoms: _93  and  _94
REMARK   37  A    between atoms: _99  and  _101
REMARK   38  A    between atoms: _112  and  _115
REMARK   39  A    between atoms: _115  and  _116
REMARK   40  A    between atoms: _124  and  _125
REMARK   41  A    between atoms: _133  and  _135
REMARK   42  A    between atoms: _135  and  _136
REMARK   43  A    between atoms: _135  and  _138
REMARK   44  A    between atoms: _138  and  _139
REMARK   45  A    between atoms: _139  and  _140
REMARK   46  A    between atoms: _143  and  _145
REMARK   47  A    between atoms: _145  and  _146
REMARK   48  A    between atoms: _145  and  _148
REMARK   49  A    between atoms: _148  and  _149
REMARK   50  A    between atoms: _154  and  _156
REMARK   51  A    between atoms: _156  and  _157
REMARK   52  A    between atoms: _156  and  _159
REMARK   53  A    between atoms: _159  and  _160
REMARK   54  A    between atoms: _160  and  _161
REMARK   55  A    between atoms: _164  and  _166
REMARK   56  A    between atoms: _166  and  _167
REMARK   57  A    between atoms: _166  and  _169
REMARK   58  A    between atoms: _169  and  _170
REMARK   59  A    between atoms: _173  and  _175
REMARK   60  A    between atoms: _175  and  _176
REMARK   61  A    between atoms: _175  and  _178
REMARK   62  A    between atoms: _178  and  _179
REMARK   63  A    between atoms: _180  and  ZN_390
REMARK   64  A    between atoms: _184  and  _186
REMARK   65  A    between atoms: _186  and  _187
REMARK   66  A    between atoms: _186  and  _189
REMARK   67  A    between atoms: _189  and  _190
REMARK   68  A    between atoms: _193  and  _195
REMARK   69  A    between atoms: _195  and  _196
REMARK   70  A    between atoms: _195  and  _198
REMARK   71  A    between atoms: _201  and  _203
REMARK   72  A    between atoms: _203  and  _204
REMARK   73  A    between atoms: _203  and  _206
REMARK   74  A    between atoms: _206  and  _207
REMARK   75  A    between atoms: _212  and  _214
REMARK   76  A    between atoms: _214  and  _215
REMARK   77  A    between atoms: _214  and  _217
REMARK   78  A    between atoms: _217  and  _218
REMARK   79  A    between atoms: _224  and  _226
REMARK   80  A    between atoms: _226  and  _227
REMARK   81  A    between atoms: _226  and  _229
REMARK   82  A    between atoms: _232  and  _234
REMARK   83  A    between atoms: _234  and  _235
REMARK   84  A    between atoms: _234  and  _237
REMARK   85  A    between atoms: _237  and  _238
REMARK   86  A    between atoms: _241  and  _243
REMARK   87  A    between atoms: _243  and  _244
REMARK   88  A    between atoms: _247  and  _249
REMARK   89  A    between atoms: _249  and  _250
REMARK   90  A    between atoms: _249  and  _252
REMARK   91  A    between atoms: _255  and  _257
REMARK   92  A    between atoms: _257  and  _258
REMARK   93  A    between atoms: _257  and  _260
REMARK   94  A    between atoms: _260  and  _261
REMARK   95  A    between atoms: _264  and  _266
REMARK   96  A    between atoms: _266  and  _267
REMARK   97  A    between atoms: _266  and  _269
REMARK   98  A    between atoms: _269  and  _270
REMARK   99  A    between atoms: _272  and  _274
REMARK  100  A    between atoms: _274  and  _275
REMARK  101  A    between atoms: _274  and  _277
REMARK  102  A    between atoms: _277  and  _278
REMARK  103  A    between atoms: _281  and  _283
REMARK  104  A    between atoms: _283  and  _284
REMARK  105  A    between atoms: _283  and  _286
REMARK  106  A    between atoms: _286  and  _287
REMARK  107  A    between atoms: _290  and  _292
REMARK  108  A    between atoms: _292  and  _293
REMARK  109  A    between atoms: _292  and  _295
REMARK  110  A    between atoms: _295  and  _296
REMARK  111  A    between atoms: _300  and  _301
REMARK  112  A    between atoms: _307  and  _308
REMARK  113  A    between atoms: _313  and  _315
REMARK  114  A    between atoms: _315  and  _316
REMARK  115  A    between atoms: _315  and  _318
REMARK  116  A    between atoms: _318  and  _319
REMARK  117  A    between atoms: _322  and  _324
REMARK  118  A    between atoms: _324  and  _325
REMARK  119  A    between atoms: _324  and  _327
REMARK  120  A    between atoms: _327  and  _328
REMARK  121  A    between atoms: _331  and  _333
REMARK  122  A    between atoms: _333  and  _334
REMARK  123  A    between atoms: _333  and  _336
REMARK  124  A    between atoms: _338  and  _340
REMARK  125  A    between atoms: _340  and  _341
REMARK  126  A    between atoms: _340  and  _343
REMARK  127  A    between atoms: _346  and  _348
REMARK  128  A    between atoms: _348  and  _349
REMARK  129  A    between atoms: _348  and  _351
REMARK  130  A    between atoms: _351  and  _352
REMARK  131  A    between atoms: _362  and  _364
REMARK  132  A    between atoms: _364  and  _365
REMARK  133  A    between atoms: _364  and  _367
REMARK  134  A    between atoms: _367  and  _368
REMARK  135  A    between atoms: _373  and  _375
REMARK  136  A    between atoms: _375  and  _376
REMARK  137  A    between atoms: _375  and  _378
REMARK  138  A    between atoms: _378  and  _379
REMARK  139  A    between atoms: _379  and  _380
REMARK  140  A    between atoms: _380  and  _381
REMARK                            x       y       z     vdW  Elec       q    Type
REMARK                         _______ _______ _______ _____ _____    ______ ____
ROOT
ATOM      1  NE  ARG A   1      23.247  -4.058  21.213  0.00  0.00    +0.330 N 
ATOM      2  CZ  ARG A   1      23.471  -3.026  22.013  0.00  0.00    +0.000 C 
ATOM      3  NH2 ARG A   1      24.718  -2.838  22.468  0.00  0.00    +0.330 N 
ATOM      4 HH21 ARG A   1      24.927  -2.037  23.098  0.00  0.00    +0.000 HD
ATOM      5 HH22 ARG A   1      25.477  -3.493  22.191  0.00  0.00    +0.000 HD
ATOM      6  NH1 ARG A   1      22.454  -2.216  22.388  0.00  0.00    +0.330 N 
ATOM      7 HH11 ARG A   1      22.637  -1.408  23.016  0.00  0.00    +0.000 HD
ATOM      8 HH12 ARG A   1      21.489  -2.402  22.048  0.00  0.00    +0.000 HD
ATOM      9  HE  ARG A   1      24.036  -4.720  21.070  0.00  0.00    +0.000 HD
ENDROOT
BRANCH   1  10
ATOM     10  CD  ARG A   1      21.962  -4.368  20.489  0.00  0.00    +0.000 C 
BRANCH  10  11
ATOM     11  CG  ARG A   1      22.136  -5.797  19.864  0.00  0.00    +0.000 C 
BRANCH  11  12
ATOM     12  CB  ARG A   1      21.011  -6.003  18.799  0.00  0.00    +0.000 C 
BRANCH  12  13
ATOM     13  CA  ARG A   1      20.870  -7.500  18.383  0.00  0.00    +0.000 C 
BRANCH  13  14
ATOM     14  N   ARG A   1      19.922  -7.573  17.246  0.00  0.00    +0.000 NA
ATOM     15  H   ARG A   1      19.115  -6.917  17.225  0.00  0.00    +0.000 HD
ENDBRANCH  13  14
BRANCH  13  16
ATOM     16  C   ARG A   1      20.362  -8.365  19.525  0.00  0.00    +0.000 C 
ATOM     17  O   ARG A   1      19.169  -8.340  19.810  0.00  0.00    +0.000 OA
ENDBRANCH  13  16
ENDBRANCH  12  13
ENDBRANCH  11  12
ENDBRANCH  10  11
ENDBRANCH   1  10
TORSDOF 6
REMARK  Name = ../refined-set-2016/4q7p/4q7p_pocket.pdb
REMARK  140 active torsions:
REMARK  status: ('A' for Active; 'I' for Inactive)
REMARK    1  A    between atoms: _1  and  _3
REMARK    2  A    between atoms: _3  and  _4
REMARK    3  A    between atoms: _3  and  _6
REMARK    4  A    between atoms: _6  and  _7
REMARK    5  A    between atoms: _17  and  _19
REMARK    6  A    between atoms: _19  and  _20
REMARK    7  A    between atoms: _19  and  _22
REMARK    8  A    between atoms: _22  and  _23
REMARK    9  A    between atoms: _28  and  _29
REMARK   10  A    between atoms: _31  and  _33
REMARK   11  A    between atoms: _33  and  _34
REMARK   12  A    between atoms: _33  and  _36
REMARK   13  A    between atoms: _36  and  _37
REMARK   14  A    between atoms: _39  and  _41
REMARK   15  A    between atoms: _41  and  _42
REMARK   16  A    between atoms: _41  and  _44
REMARK   17  A    between atoms: _44  and  _45
REMARK   18  A    between atoms: _50  and  _52
REMARK   19  A    between atoms: _52  and  _53
REMARK   20  A    between atoms: _52  and  _55
REMARK   21  A    between atoms: _55  and  _56
REMARK   22  A    between atoms: _61  and  _63
REMARK   23  A    between atoms: _63  and  _64
REMARK   24  A    between atoms: _67  and  _69
REMARK   25  A    between atoms: _69  and  _70
REMARK   26  A    between atoms: _69  and  _72
REMARK   27  A    between atoms: _72  and  _73
REMARK   28  A    between atoms: _78  and  _80
REMARK   29  A    between atoms: _80  and  _81
REMARK   30  A    between atoms: _80  and  _83
REMARK   31  A    between atoms: _83  and  _84
REMARK   32  A    between atoms: _87  and  _89
REMARK   33  A    between atoms: _89  and  _90
REMARK   34  A    between atoms: _89  and  _92
REMARK   35  A    between atoms: _92  and  _93
REMARK   36  A    between atoms: _93  and  _94
REMARK   37  A    between atoms: _99  and  _101
REMARK   38  A    between atoms: _112  and  _115
REMARK   39  A    between atoms: _115  and  _116
REMARK   40  A    between atoms: _124  and  _125
REMARK   41  A    between atoms: _133  and  _135
REMARK   42  A    between atoms: _135  and  _136
REMARK   43  A    between atoms: _135  and  _138
REMARK   44  A    between atoms: _138  and  _139
REMARK   45  A    between atoms: _139  and  _140
REMARK   46  A    between atoms: _143  and  _145
REMARK   47  A    between atoms: _145  and  _146
REMARK   48  A    between atoms: _145  and  _148
REMARK   49  A    between atoms: _148  and  _149
REMARK   50  A    between atoms: _154  and  _156
REMARK   51  A    between atoms: _156  and  _157
REMARK   52  A    between atoms: _156  and  _159
REMARK   53  A    between atoms: _159  and  _160
REMARK   54  A    between atoms: _160  and  _161
REMARK   55  A    between atoms: _164  and  _166
REMARK   56  A    between atoms: _166  and  _167
REMARK   57  A    between atoms: _166  and  _169
REMARK   58  A    between atoms: _169  and  _170
REMARK   59  A    between atoms: _173  and  _175
REMARK   60  A    between atoms: _175  and  _176
REMARK   61  A    between atoms: _175  and  _178
REMARK   62  A    between atoms: _178  and  _179
REMARK   63  A    between atoms: _180  and  ZN_390
REMARK   64  A    between atoms: _184  and  _186
REMARK   65  A    between atoms: _186  and  _187
REMARK   66  A    between atoms: _186  and  _189
REMARK   67  A    between atoms: _189  and  _190
REMARK   68  A    between atoms: _193  and  _195
REMARK   69  A    between atoms: _195  and  _196
REMARK   70  A    between atoms: _195  and  _198
REMARK   71  A    between atoms: _201  and  _203
REMARK   72  A    between atoms: _203  and  _204
REMARK   73  A    between atoms: _203  and  _206
REMARK   74  A    between atoms: _206  and  _207
REMARK   75  A    between atoms: _212  and  _214
REMARK   76  A    between atoms: _214  and  _215
REMARK   77  A    between atoms: _214  and  _217
REMARK   78  A    between atoms: _217  and  _218
REMARK   79  A    between atoms: _224  and  _226
REMARK   80  A    between atoms: _226  and  _227
REMARK   81  A    between atoms: _226  and  _229
REMARK   82  A    between atoms: _232  and  _234
REMARK   83  A    between atoms: _234  and  _235
REMARK   84  A    between atoms: _234  and  _237
REMARK   85  A    between atoms: _237  and  _238
REMARK   86  A    between atoms: _241  and  _243
REMARK   87  A    between atoms: _243  and  _244
REMARK   88  A    between atoms: _247  and  _249
REMARK   89  A    between atoms: _249  and  _250
REMARK   90  A    between atoms: _249  and  _252
REMARK   91  A    between atoms: _255  and  _257
REMARK   92  A    between atoms: _257  and  _258
REMARK   93  A    between atoms: _257  and  _260
REMARK   94  A    between atoms: _260  and  _261
REMARK   95  A    between atoms: _264  and  _266
REMARK   96  A    between atoms: _266  and  _267
REMARK   97  A    between atoms: _266  and  _269
REMARK   98  A    between atoms: _269  and  _270
REMARK   99  A    between atoms: _272  and  _274
REMARK  100  A    between atoms: _274  and  _275
REMARK  101  A    between atoms: _274  and  _277
REMARK  102  A    between atoms: _277  and  _278
REMARK  103  A    between atoms: _281  and  _283
REMARK  104  A    between atoms: _283  and  _284
REMARK  105  A    between atoms: _283  and  _286
REMARK  106  A    between atoms: _286  and  _287
REMARK  107  A    between atoms: _290  and  _292
REMARK  108  A    between atoms: _292  and  _293
REMARK  109  A    between atoms: _292  and  _295
REMARK  110  A    between atoms: _295  and  _296
REMARK  111  A    between atoms: _300  and  _301
REMARK  112  A    between atoms: _307  and  _308
REMARK  113  A    between atoms: _313  and  _315
REMARK  114  A    between atoms: _315  and  _316
REMARK  115  A    between atoms: _315  and  _318
REMARK  116  A    between atoms: _318  and  _319
REMARK  117  A    between atoms: _322  and  _324
REMARK  118  A    between atoms: _324  and  _325
REMARK  119  A    between atoms: _324  and  _327
REMARK  120  A    between atoms: _327  and  _328
REMARK  121  A    between atoms: _331  and  _333
REMARK  122  A    between atoms: _333  and  _334
REMARK  123  A    between atoms: _333  and  _336
REMARK  124  A    between atoms: _338  and  _340
REMARK  125  A    between atoms: _340  and  _341
REMARK  126  A    between atoms: _340  and  _343
REMARK  127  A    between atoms: _346  and  _348
REMARK  128  A    between atoms: _348  and  _349
REMARK  129  A    between atoms: _348  and  _351
REMARK  130  A    between atoms: _351  and  _352
REMARK  131  A    between atoms: _362  and  _364
REMARK  132  A    between atoms: _364  and  _365
REMARK  133  A    between atoms: _364  and  _367
REMARK  134  A    between atoms: _367  and  _368
REMARK  135  A    between atoms: _373  and  _375
REMARK  136  A    between atoms: _375  and  _376
REMARK  137  A    between atoms: _375  and  _378
REMARK  138  A    between atoms: _378  and  _379
REMARK  139  A    between atoms: _379  and  _380
REMARK  140  A    between atoms: _380  and  _381
REMARK                            x       y       z     vdW  Elec       q    Type
REMARK                         _______ _______ _______ _____ _____    ______ ____
ROOT
ATOM      1  O   HOH     1      16.789  -0.987  11.951  0.00  0.00    +0.000 OA
ENDROOT
TORSDOF 0
REMARK  Name = ../refined-set-2016/4q7p/4q7p_pocket.pdb
REMARK  140 active torsions:
REMARK  status: ('A' for Active; 'I' for Inactive)
REMARK    1  A    between atoms: _1  and  _3
REMARK    2  A    between atoms: _3  and  _4
REMARK    3  A    between atoms: _3  and  _6
REMARK    4  A    between atoms: _6  and  _7
REMARK    5  A    between atoms: _17  and  _19
REMARK    6  A    between atoms: _19  and  _20
REMARK    7  A    between atoms: _19  and  _22
REMARK    8  A    between atoms: _22  and  _23
REMARK    9  A    between atoms: _28  and  _29
REMARK   10  A    between atoms: _31  and  _33
REMARK   11  A    between atoms: _33  and  _34
REMARK   12  A    between atoms: _33  and  _36
REMARK   13  A    between atoms: _36  and  _37
REMARK   14  A    between atoms: _39  and  _41
REMARK   15  A    between atoms: _41  and  _42
REMARK   16  A    between atoms: _41  and  _44
REMARK   17  A    between atoms: _44  and  _45
REMARK   18  A    between atoms: _50  and  _52
REMARK   19  A    between atoms: _52  and  _53
REMARK   20  A    between atoms: _52  and  _55
REMARK   21  A    between atoms: _55  and  _56
REMARK   22  A    between atoms: _61  and  _63
REMARK   23  A    between atoms: _63  and  _64
REMARK   24  A    between atoms: _67  and  _69
REMARK   25  A    between atoms: _69  and  _70
REMARK   26  A    between atoms: _69  and  _72
REMARK   27  A    between atoms: _72  and  _73
REMARK   28  A    between atoms: _78  and  _80
REMARK   29  A    between atoms: _80  and  _81
REMARK   30  A    between atoms: _80  and  _83
REMARK   31  A    between atoms: _83  and  _84
REMARK   32  A    between atoms: _87  and  _89
REMARK   33  A    between atoms: _89  and  _90
REMARK   34  A    between atoms: _89  and  _92
REMARK   35  A    between atoms: _92  and  _93
REMARK   36  A    between atoms: _93  and  _94
REMARK   37  A    between atoms: _99  and  _101
REMARK   38  A    between atoms: _112  and  _115
REMARK   39  A    between atoms: _115  and  _116
REMARK   40  A    between atoms: _124  and  _125
REMARK   41  A    between atoms: _133  and  _135
REMARK   42  A    between atoms: _135  and  _136
REMARK   43  A    between atoms: _135  and  _138
REMARK   44  A    between atoms: _138  and  _139
REMARK   45  A    between atoms: _139  and  _140
REMARK   46  A    between atoms: _143  and  _145
REMARK   47  A    between atoms: _145  and  _146
REMARK   48  A    between atoms: _145  and  _148
REMARK   49  A    between atoms: _148  and  _149
REMARK   50  A    between atoms: _154  and  _156
REMARK   51  A    between atoms: _156  and  _157
REMARK   52  A    between atoms: _156  and  _159
REMARK   53  A    between atoms: _159  and  _160
REMARK   54  A    between atoms: _160  and  _161
REMARK   55  A    between atoms: _164  and  _166
REMARK   56  A    between atoms: _166  and  _167
REMARK   57  A    between atoms: _166  and  _169
REMARK   58  A    between atoms: _169  and  _170
REMARK   59  A    between atoms: _173  and  _175
REMARK   60  A    between atoms: _175  and  _176
REMARK   61  A    between atoms: _175  and  _178
REMARK   62  A    between atoms: _178  and  _179
REMARK   63  A    between atoms: _180  and  ZN_390
REMARK   64  A    between atoms: _184  and  _186
REMARK   65  A    between atoms: _186  and  _187
REMARK   66  A    between atoms: _186  and  _189
REMARK   67  A    between atoms: _189  and  _190
REMARK   68  A    between atoms: _193  and  _195
REMARK   69  A    between atoms: _195  and  _196
REMARK   70  A    between atoms: _195  and  _198
REMARK   71  A    between atoms: _201  and  _203
REMARK   72  A    between atoms: _203  and  _204
REMARK   73  A    between atoms: _203  and  _206
REMARK   74  A    between atoms: _206  and  _207
REMARK   75  A    between atoms: _212  and  _214
REMARK   76  A    between atoms: _214  and  _215
REMARK   77  A    between atoms: _214  and  _217
REMARK   78  A    between atoms: _217  and  _218
REMARK   79  A    between atoms: _224  and  _226
REMARK   80  A    between atoms: _226  and  _227
REMARK   81  A    between atoms: _226  and  _229
REMARK   82  A    between atoms: _232  and  _234
REMARK   83  A    between atoms: _234  and  _235
REMARK   84  A    between atoms: _234  and  _237
REMARK   85  A    between atoms: _237  and  _238
REMARK   86  A    between atoms: _241  and  _243
REMARK   87  A    between atoms: _243  and  _244
REMARK   88  A    between atoms: _247  and  _249
REMARK   89  A    between atoms: _249  and  _250
REMARK   90  A    between atoms: _249  and  _252
REMARK   91  A    between atoms: _255  and  _257
REMARK   92  A    between atoms: _257  and  _258
REMARK   93  A    between atoms: _257  and  _260
REMARK   94  A    between atoms: _260  and  _261
REMARK   95  A    between atoms: _264  and  _266
REMARK   96  A    between atoms: _266  and  _267
REMARK   97  A    between atoms: _266  and  _269
REMARK   98  A    between atoms: _269  and  _270
REMARK   99  A    between atoms: _272  and  _274
REMARK  100  A    between atoms: _274  and  _275
REMARK  101  A    between atoms: _274  and  _277
REMARK  102  A    between atoms: _277  and  _278
REMARK  103  A    between atoms: _281  and  _283
REMARK  104  A    between atoms: _283  and  _284
REMARK  105  A    between atoms: _283  and  _286
REMARK  106  A    between atoms: _286  and  _287
REMARK  107  A    between atoms: _290  and  _292
REMARK  108  A    between atoms: _292  and  _293
REMARK  109  A    between atoms: _292  and  _295
REMARK  110  A    between atoms: _295  and  _296
REMARK  111  A    between atoms: _300  and  _301
REMARK  112  A    between atoms: _307  and  _308
REMARK  113  A    between atoms: _313  and  _315
REMARK  114  A    between atoms: _315  and  _316
REMARK  115  A    between atoms: _315  and  _318
REMARK  116  A    between atoms: _318  and  _319
REMARK  117  A    between atoms: _322  and  _324
REMARK  118  A    between atoms: _324  and  _325
REMARK  119  A    between atoms: _324  and  _327
REMARK  120  A    between atoms: _327  and  _328
REMARK  121  A    between atoms: _331  and  _333
REMARK  122  A    between atoms: _333  and  _334
REMARK  123  A    between atoms: _333  and  _336
REMARK  124  A    between atoms: _338  and  _340
REMARK  125  A    between atoms: _340  and  _341
REMARK  126  A    between atoms: _340  and  _343
REMARK  127  A    between atoms: _346  and  _348
REMARK  128  A    between atoms: _348  and  _349
REMARK  129  A    between atoms: _348  and  _351
REMARK  130  A    between atoms: _351  and  _352
REMARK  131  A    between atoms: _362  and  _364
REMARK  132  A    between atoms: _364  and  _365
REMARK  133  A    between atoms: _364  and  _367
REMARK  134  A    between atoms: _367  and  _368
REMARK  135  A    between atoms: _373  and  _375
REMARK  136  A    between atoms: _375  and  _376
REMARK  137  A    between atoms: _375  and  _378
REMARK  138  A    between atoms: _378  and  _379
REMARK  139  A    between atoms: _379  and  _380
REMARK  140  A    between atoms: _380  and  _381
REMARK                            x       y       z     vdW  Elec       q    Type
REMARK                         _______ _______ _______ _____ _____    ______ ____
ROOT
ATOM      1  O   HOH     1      15.475   1.081  10.645  0.00  0.00    +0.000 OA
ENDROOT
TORSDOF 0
REMARK  Name = ../refined-set-2016/4q7p/4q7p_pocket.pdb
REMARK  140 active torsions:
REMARK  status: ('A' for Active; 'I' for Inactive)
REMARK    1  A    between atoms: _1  and  _3
REMARK    2  A    between atoms: _3  and  _4
REMARK    3  A    between atoms: _3  and  _6
REMARK    4  A    between atoms: _6  and  _7
REMARK    5  A    between atoms: _17  and  _19
REMARK    6  A    between atoms: _19  and  _20
REMARK    7  A    between atoms: _19  and  _22
REMARK    8  A    between atoms: _22  and  _23
REMARK    9  A    between atoms: _28  and  _29
REMARK   10  A    between atoms: _31  and  _33
REMARK   11  A    between atoms: _33  and  _34
REMARK   12  A    between atoms: _33  and  _36
REMARK   13  A    between atoms: _36  and  _37
REMARK   14  A    between atoms: _39  and  _41
REMARK   15  A    between atoms: _41  and  _42
REMARK   16  A    between atoms: _41  and  _44
REMARK   17  A    between atoms: _44  and  _45
REMARK   18  A    between atoms: _50  and  _52
REMARK   19  A    between atoms: _52  and  _53
REMARK   20  A    between atoms: _52  and  _55
REMARK   21  A    between atoms: _55  and  _56
REMARK   22  A    between atoms: _61  and  _63
REMARK   23  A    between atoms: _63  and  _64
REMARK   24  A    between atoms: _67  and  _69
REMARK   25  A    between atoms: _69  and  _70
REMARK   26  A    between atoms: _69  and  _72
REMARK   27  A    between atoms: _72  and  _73
REMARK   28  A    between atoms: _78  and  _80
REMARK   29  A    between atoms: _80  and  _81
REMARK   30  A    between atoms: _80  and  _83
REMARK   31  A    between atoms: _83  and  _84
REMARK   32  A    between atoms: _87  and  _89
REMARK   33  A    between atoms: _89  and  _90
REMARK   34  A    between atoms: _89  and  _92
REMARK   35  A    between atoms: _92  and  _93
REMARK   36  A    between atoms: _93  and  _94
REMARK   37  A    between atoms: _99  and  _101
REMARK   38  A    between atoms: _112  and  _115
REMARK   39  A    between atoms: _115  and  _116
REMARK   40  A    between atoms: _124  and  _125
REMARK   41  A    between atoms: _133  and  _135
REMARK   42  A    between atoms: _135  and  _136
REMARK   43  A    between atoms: _135  and  _138
REMARK   44  A    between atoms: _138  and  _139
REMARK   45  A    between atoms: _139  and  _140
REMARK   46  A    between atoms: _143  and  _145
REMARK   47  A    between atoms: _145  and  _146
REMARK   48  A    between atoms: _145  and  _148
REMARK   49  A    between atoms: _148  and  _149
REMARK   50  A    between atoms: _154  and  _156
REMARK   51  A    between atoms: _156  and  _157
REMARK   52  A    between atoms: _156  and  _159
REMARK   53  A    between atoms: _159  and  _160
REMARK   54  A    between atoms: _160  and  _161
REMARK   55  A    between atoms: _164  and  _166
REMARK   56  A    between atoms: _166  and  _167
REMARK   57  A    between atoms: _166  and  _169
REMARK   58  A    between atoms: _169  and  _170
REMARK   59  A    between atoms: _173  and  _175
REMARK   60  A    between atoms: _175  and  _176
REMARK   61  A    between atoms: _175  and  _178
REMARK   62  A    between atoms: _178  and  _179
REMARK   63  A    between atoms: _180  and  ZN_390
REMARK   64  A    between atoms: _184  and  _186
REMARK   65  A    between atoms: _186  and  _187
REMARK   66  A    between atoms: _186  and  _189
REMARK   67  A    between atoms: _189  and  _190
REMARK   68  A    between atoms: _193  and  _195
REMARK   69  A    between atoms: _195  and  _196
REMARK   70  A    between atoms: _195  and  _198
REMARK   71  A    between atoms: _201  and  _203
REMARK   72  A    between atoms: _203  and  _204
REMARK   73  A    between atoms: _203  and  _206
REMARK   74  A    between atoms: _206  and  _207
REMARK   75  A    between atoms: _212  and  _214
REMARK   76  A    between atoms: _214  and  _215
REMARK   77  A    between atoms: _214  and  _217
REMARK   78  A    between atoms: _217  and  _218
REMARK   79  A    between atoms: _224  and  _226
REMARK   80  A    between atoms: _226  and  _227
REMARK   81  A    between atoms: _226  and  _229
REMARK   82  A    between atoms: _232  and  _234
REMARK   83  A    between atoms: _234  and  _235
REMARK   84  A    between atoms: _234  and  _237
REMARK   85  A    between atoms: _237  and  _238
REMARK   86  A    between atoms: _241  and  _243
REMARK   87  A    between atoms: _243  and  _244
REMARK   88  A    between atoms: _247  and  _249
REMARK   89  A    between atoms: _249  and  _250
REMARK   90  A    between atoms: _249  and  _252
REMARK   91  A    between atoms: _255  and  _257
REMARK   92  A    between atoms: _257  and  _258
REMARK   93  A    between atoms: _257  and  _260
REMARK   94  A    between atoms: _260  and  _261
REMARK   95  A    between atoms: _264  and  _266
REMARK   96  A    between atoms: _266  and  _267
REMARK   97  A    between atoms: _266  and  _269
REMARK   98  A    between atoms: _269  and  _270
REMARK   99  A    between atoms: _272  and  _274
REMARK  100  A    between atoms: _274  and  _275
REMARK  101  A    between atoms: _274  and  _277
REMARK  102  A    between atoms: _277  and  _278
REMARK  103  A    between atoms: _281  and  _283
REMARK  104  A    between atoms: _283  and  _284
REMARK  105  A    between atoms: _283  and  _286
REMARK  106  A    between atoms: _286  and  _287
REMARK  107  A    between atoms: _290  and  _292
REMARK  108  A    between atoms: _292  and  _293
REMARK  109  A    between atoms: _292  and  _295
REMARK  110  A    between atoms: _295  and  _296
REMARK  111  A    between atoms: _300  and  _301
REMARK  112  A    between atoms: _307  and  _308
REMARK  113  A    between atoms: _313  and  _315
REMARK  114  A    between atoms: _315  and  _316
REMARK  115  A    between atoms: _315  and  _318
REMARK  116  A    between atoms: _318  and  _319
REMARK  117  A    between atoms: _322  and  _324
REMARK  118  A    between atoms: _324  and  _325
REMARK  119  A    between atoms: _324  and  _327
REMARK  120  A    between atoms: _327  and  _328
REMARK  121  A    between atoms: _331  and  _333
REMARK  122  A    between atoms: _333  and  _334
REMARK  123  A    between atoms: _333  and  _336
REMARK  124  A    between atoms: _338  and  _340
REMARK  125  A    between atoms: _340  and  _341
REMARK  126  A    between atoms: _340  and  _343
REMARK  127  A    between atoms: _346  and  _348
REMARK  128  A    between atoms: _348  and  _349
REMARK  129  A    between atoms: _348  and  _351
REMARK  130  A    between atoms: _351  and  _352
REMARK  131  A    between atoms: _362  and  _364
REMARK  132  A    between atoms: _364  and  _365
REMARK  133  A    between atoms: _364  and  _367
REMARK  134  A    between atoms: _367  and  _368
REMARK  135  A    between atoms: _373  and  _375
REMARK  136  A    between atoms: _375  and  _376
REMARK  137  A    between atoms: _375  and  _378
REMARK  138  A    between atoms: _378  and  _379
REMARK  139  A    between atoms: _379  and  _380
REMARK  140  A    between atoms: _380  and  _381
REMARK                            x       y       z     vdW  Elec       q    Type
REMARK                         _______ _______ _______ _____ _____    ______ ____
ROOT
ATOM      1  O   HOH     1      16.791   3.571  10.339  0.00  0.00    +0.000 OA
ENDROOT
TORSDOF 0
REMARK  Name = ../refined-set-2016/4q7p/4q7p_pocket.pdb
REMARK  140 active torsions:
REMARK  status: ('A' for Active; 'I' for Inactive)
REMARK    1  A    between atoms: _1  and  _3
REMARK    2  A    between atoms: _3  and  _4
REMARK    3  A    between atoms: _3  and  _6
REMARK    4  A    between atoms: _6  and  _7
REMARK    5  A    between atoms: _17  and  _19
REMARK    6  A    between atoms: _19  and  _20
REMARK    7  A    between atoms: _19  and  _22
REMARK    8  A    between atoms: _22  and  _23
REMARK    9  A    between atoms: _28  and  _29
REMARK   10  A    between atoms: _31  and  _33
REMARK   11  A    between atoms: _33  and  _34
REMARK   12  A    between atoms: _33  and  _36
REMARK   13  A    between atoms: _36  and  _37
REMARK   14  A    between atoms: _39  and  _41
REMARK   15  A    between atoms: _41  and  _42
REMARK   16  A    between atoms: _41  and  _44
REMARK   17  A    between atoms: _44  and  _45
REMARK   18  A    between atoms: _50  and  _52
REMARK   19  A    between atoms: _52  and  _53
REMARK   20  A    between atoms: _52  and  _55
REMARK   21  A    between atoms: _55  and  _56
REMARK   22  A    between atoms: _61  and  _63
REMARK   23  A    between atoms: _63  and  _64
REMARK   24  A    between atoms: _67  and  _69
REMARK   25  A    between atoms: _69  and  _70
REMARK   26  A    between atoms: _69  and  _72
REMARK   27  A    between atoms: _72  and  _73
REMARK   28  A    between atoms: _78  and  _80
REMARK   29  A    between atoms: _80  and  _81
REMARK   30  A    between atoms: _80  and  _83
REMARK   31  A    between atoms: _83  and  _84
REMARK   32  A    between atoms: _87  and  _89
REMARK   33  A    between atoms: _89  and  _90
REMARK   34  A    between atoms: _89  and  _92
REMARK   35  A    between atoms: _92  and  _93
REMARK   36  A    between atoms: _93  and  _94
REMARK   37  A    between atoms: _99  and  _101
REMARK   38  A    between atoms: _112  and  _115
REMARK   39  A    between atoms: _115  and  _116
REMARK   40  A    between atoms: _124  and  _125
REMARK   41  A    between atoms: _133  and  _135
REMARK   42  A    between atoms: _135  and  _136
REMARK   43  A    between atoms: _135  and  _138
REMARK   44  A    between atoms: _138  and  _139
REMARK   45  A    between atoms: _139  and  _140
REMARK   46  A    between atoms: _143  and  _145
REMARK   47  A    between atoms: _145  and  _146
REMARK   48  A    between atoms: _145  and  _148
REMARK   49  A    between atoms: _148  and  _149
REMARK   50  A    between atoms: _154  and  _156
REMARK   51  A    between atoms: _156  and  _157
REMARK   52  A    between atoms: _156  and  _159
REMARK   53  A    between atoms: _159  and  _160
REMARK   54  A    between atoms: _160  and  _161
REMARK   55  A    between atoms: _164  and  _166
REMARK   56  A    between atoms: _166  and  _167
REMARK   57  A    between atoms: _166  and  _169
REMARK   58  A    between atoms: _169  and  _170
REMARK   59  A    between atoms: _173  and  _175
REMARK   60  A    between atoms: _175  and  _176
REMARK   61  A    between atoms: _175  and  _178
REMARK   62  A    between atoms: _178  and  _179
REMARK   63  A    between atoms: _180  and  ZN_390
REMARK   64  A    between atoms: _184  and  _186
REMARK   65  A    between atoms: _186  and  _187
REMARK   66  A    between atoms: _186  and  _189
REMARK   67  A    between atoms: _189  and  _190
REMARK   68  A    between atoms: _193  and  _195
REMARK   69  A    between atoms: _195  and  _196
REMARK   70  A    between atoms: _195  and  _198
REMARK   71  A    between atoms: _201  and  _203
REMARK   72  A    between atoms: _203  and  _204
REMARK   73  A    between atoms: _203  and  _206
REMARK   74  A    between atoms: _206  and  _207
REMARK   75  A    between atoms: _212  and  _214
REMARK   76  A    between atoms: _214  and  _215
REMARK   77  A    between atoms: _214  and  _217
REMARK   78  A    between atoms: _217  and  _218
REMARK   79  A    between atoms: _224  and  _226
REMARK   80  A    between atoms: _226  and  _227
REMARK   81  A    between atoms: _226  and  _229
REMARK   82  A    between atoms: _232  and  _234
REMARK   83  A    between atoms: _234  and  _235
REMARK   84  A    between atoms: _234  and  _237
REMARK   85  A    between atoms: _237  and  _238
REMARK   86  A    between atoms: _241  and  _243
REMARK   87  A    between atoms: _243  and  _244
REMARK   88  A    between atoms: _247  and  _249
REMARK   89  A    between atoms: _249  and  _250
REMARK   90  A    between atoms: _249  and  _252
REMARK   91  A    between atoms: _255  and  _257
REMARK   92  A    between atoms: _257  and  _258
REMARK   93  A    between atoms: _257  and  _260
REMARK   94  A    between atoms: _260  and  _261
REMARK   95  A    between atoms: _264  and  _266
REMARK   96  A    between atoms: _266  and  _267
REMARK   97  A    between atoms: _266  and  _269
REMARK   98  A    between atoms: _269  and  _270
REMARK   99  A    between atoms: _272  and  _274
REMARK  100  A    between atoms: _274  and  _275
REMARK  101  A    between atoms: _274  and  _277
REMARK  102  A    between atoms: _277  and  _278
REMARK  103  A    between atoms: _281  and  _283
REMARK  104  A    between atoms: _283  and  _284
REMARK  105  A    between atoms: _283  and  _286
REMARK  106  A    between atoms: _286  and  _287
REMARK  107  A    between atoms: _290  and  _292
REMARK  108  A    between atoms: _292  and  _293
REMARK  109  A    between atoms: _292  and  _295
REMARK  110  A    between atoms: _295  and  _296
REMARK  111  A    between atoms: _300  and  _301
REMARK  112  A    between atoms: _307  and  _308
REMARK  113  A    between atoms: _313  and  _315
REMARK  114  A    between atoms: _315  and  _316
REMARK  115  A    between atoms: _315  and  _318
REMARK  116  A    between atoms: _318  and  _319
REMARK  117  A    between atoms: _322  and  _324
REMARK  118  A    between atoms: _324  and  _325
REMARK  119  A    between atoms: _324  and  _327
REMARK  120  A    between atoms: _327  and  _328
REMARK  121  A    between atoms: _331  and  _333
REMARK  122  A    between atoms: _333  and  _334
REMARK  123  A    between atoms: _333  and  _336
REMARK  124  A    between atoms: _338  and  _340
REMARK  125  A    between atoms: _340  and  _341
REMARK  126  A    between atoms: _340  and  _343
REMARK  127  A    between atoms: _346  and  _348
REMARK  128  A    between atoms: _348  and  _349
REMARK  129  A    between atoms: _348  and  _351
REMARK  130  A    between atoms: _351  and  _352
REMARK  131  A    between atoms: _362  and  _364
REMARK  132  A    between atoms: _364  and  _365
REMARK  133  A    between atoms: _364  and  _367
REMARK  134  A    between atoms: _367  and  _368
REMARK  135  A    between atoms: _373  and  _375
REMARK  136  A    between atoms: _375  and  _376
REMARK  137  A    between atoms: _375  and  _378
REMARK  138  A    between atoms: _378  and  _379
REMARK  139  A    between atoms: _379  and  _380
REMARK  140  A    between atoms: _380  and  _381
REMARK                            x       y       z     vdW  Elec       q    Type
REMARK                         _______ _______ _______ _____ _____    ______ ____
ROOT
ATOM      1  O   HOH     1      19.295   2.877  11.124  0.00  0.00    +0.000 OA
ENDROOT
TORSDOF 0
REMARK  Name = ../refined-set-2016/4q7p/4q7p_pocket.pdb
REMARK  140 active torsions:
REMARK  status: ('A' for Active; 'I' for Inactive)
REMARK    1  A    between atoms: _1  and  _3
REMARK    2  A    between atoms: _3  and  _4
REMARK    3  A    between atoms: _3  and  _6
REMARK    4  A    between atoms: _6  and  _7
REMARK    5  A    between atoms: _17  and  _19
REMARK    6  A    between atoms: _19  and  _20
REMARK    7  A    between atoms: _19  and  _22
REMARK    8  A    between atoms: _22  and  _23
REMARK    9  A    between atoms: _28  and  _29
REMARK   10  A    between atoms: _31  and  _33
REMARK   11  A    between atoms: _33  and  _34
REMARK   12  A    between atoms: _33  and  _36
REMARK   13  A    between atoms: _36  and  _37
REMARK   14  A    between atoms: _39  and  _41
REMARK   15  A    between atoms: _41  and  _42
REMARK   16  A    between atoms: _41  and  _44
REMARK   17  A    between atoms: _44  and  _45
REMARK   18  A    between atoms: _50  and  _52
REMARK   19  A    between atoms: _52  and  _53
REMARK   20  A    between atoms: _52  and  _55
REMARK   21  A    between atoms: _55  and  _56
REMARK   22  A    between atoms: _61  and  _63
REMARK   23  A    between atoms: _63  and  _64
REMARK   24  A    between atoms: _67  and  _69
REMARK   25  A    between atoms: _69  and  _70
REMARK   26  A    between atoms: _69  and  _72
REMARK   27  A    between atoms: _72  and  _73
REMARK   28  A    between atoms: _78  and  _80
REMARK   29  A    between atoms: _80  and  _81
REMARK   30  A    between atoms: _80  and  _83
REMARK   31  A    between atoms: _83  and  _84
REMARK   32  A    between atoms: _87  and  _89
REMARK   33  A    between atoms: _89  and  _90
REMARK   34  A    between atoms: _89  and  _92
REMARK   35  A    between atoms: _92  and  _93
REMARK   36  A    between atoms: _93  and  _94
REMARK   37  A    between atoms: _99  and  _101
REMARK   38  A    between atoms: _112  and  _115
REMARK   39  A    between atoms: _115  and  _116
REMARK   40  A    between atoms: _124  and  _125
REMARK   41  A    between atoms: _133  and  _135
REMARK   42  A    between atoms: _135  and  _136
REMARK   43  A    between atoms: _135  and  _138
REMARK   44  A    between atoms: _138  and  _139
REMARK   45  A    between atoms: _139  and  _140
REMARK   46  A    between atoms: _143  and  _145
REMARK   47  A    between atoms: _145  and  _146
REMARK   48  A    between atoms: _145  and  _148
REMARK   49  A    between atoms: _148  and  _149
REMARK   50  A    between atoms: _154  and  _156
REMARK   51  A    between atoms: _156  and  _157
REMARK   52  A    between atoms: _156  and  _159
REMARK   53  A    between atoms: _159  and  _160
REMARK   54  A    between atoms: _160  and  _161
REMARK   55  A    between atoms: _164  and  _166
REMARK   56  A    between atoms: _166  and  _167
REMARK   57  A    between atoms: _166  and  _169
REMARK   58  A    between atoms: _169  and  _170
REMARK   59  A    between atoms: _173  and  _175
REMARK   60  A    between atoms: _175  and  _176
REMARK   61  A    between atoms: _175  and  _178
REMARK   62  A    between atoms: _178  and  _179
REMARK   63  A    between atoms: _180  and  ZN_390
REMARK   64  A    between atoms: _184  and  _186
REMARK   65  A    between atoms: _186  and  _187
REMARK   66  A    between atoms: _186  and  _189
REMARK   67  A    between atoms: _189  and  _190
REMARK   68  A    between atoms: _193  and  _195
REMARK   69  A    between atoms: _195  and  _196
REMARK   70  A    between atoms: _195  and  _198
REMARK   71  A    between atoms: _201  and  _203
REMARK   72  A    between atoms: _203  and  _204
REMARK   73  A    between atoms: _203  and  _206
REMARK   74  A    between atoms: _206  and  _207
REMARK   75  A    between atoms: _212  and  _214
REMARK   76  A    between atoms: _214  and  _215
REMARK   77  A    between atoms: _214  and  _217
REMARK   78  A    between atoms: _217  and  _218
REMARK   79  A    between atoms: _224  and  _226
REMARK   80  A    between atoms: _226  and  _227
REMARK   81  A    between atoms: _226  and  _229
REMARK   82  A    between atoms: _232  and  _234
REMARK   83  A    between atoms: _234  and  _235
REMARK   84  A    between atoms: _234  and  _237
REMARK   85  A    between atoms: _237  and  _238
REMARK   86  A    between atoms: _241  and  _243
REMARK   87  A    between atoms: _243  and  _244
REMARK   88  A    between atoms: _247  and  _249
REMARK   89  A    between atoms: _249  and  _250
REMARK   90  A    between atoms: _249  and  _252
REMARK   91  A    between atoms: _255  and  _257
REMARK   92  A    between atoms: _257  and  _258
REMARK   93  A    between atoms: _257  and  _260
REMARK   94  A    between atoms: _260  and  _261
REMARK   95  A    between atoms: _264  and  _266
REMARK   96  A    between atoms: _266  and  _267
REMARK   97  A    between atoms: _266  and  _269
REMARK   98  A    between atoms: _269  and  _270
REMARK   99  A    between atoms: _272  and  _274
REMARK  100  A    between atoms: _274  and  _275
REMARK  101  A    between atoms: _274  and  _277
REMARK  102  A    between atoms: _277  and  _278
REMARK  103  A    between atoms: _281  and  _283
REMARK  104  A    between atoms: _283  and  _284
REMARK  105  A    between atoms: _283  and  _286
REMARK  106  A    between atoms: _286  and  _287
REMARK  107  A    between atoms: _290  and  _292
REMARK  108  A    between atoms: _292  and  _293
REMARK  109  A    between atoms: _292  and  _295
REMARK  110  A    between atoms: _295  and  _296
REMARK  111  A    between atoms: _300  and  _301
REMARK  112  A    between atoms: _307  and  _308
REMARK  113  A    between atoms: _313  and  _315
REMARK  114  A    between atoms: _315  and  _316
REMARK  115  A    between atoms: _315  and  _318
REMARK  116  A    between atoms: _318  and  _319
REMARK  117  A    between atoms: _322  and  _324
REMARK  118  A    between atoms: _324  and  _325
REMARK  119  A    between atoms: _324  and  _327
REMARK  120  A    between atoms: _327  and  _328
REMARK  121  A    between atoms: _331  and  _333
REMARK  122  A    between atoms: _333  and  _334
REMARK  123  A    between atoms: _333  and  _336
REMARK  124  A    between atoms: _338  and  _340
REMARK  125  A    between atoms: _340  and  _341
REMARK  126  A    between atoms: _340  and  _343
REMARK  127  A    between atoms: _346  and  _348
REMARK  128  A    between atoms: _348  and  _349
REMARK  129  A    between atoms: _348  and  _351
REMARK  130  A    between atoms: _351  and  _352
REMARK  131  A    between atoms: _362  and  _364
REMARK  132  A    between atoms: _364  and  _365
REMARK  133  A    between atoms: _364  and  _367
REMARK  134  A    between atoms: _367  and  _368
REMARK  135  A    between atoms: _373  and  _375
REMARK  136  A    between atoms: _375  and  _376
REMARK  137  A    between atoms: _375  and  _378
REMARK  138  A    between atoms: _378  and  _379
REMARK  139  A    between atoms: _379  and  _380
REMARK  140  A    between atoms: _380  and  _381
REMARK                            x       y       z     vdW  Elec       q    Type
REMARK                         _______ _______ _______ _____ _____    ______ ____
ROOT
ATOM      1  O   HOH     1      19.792   3.344  13.739  0.00  0.00    +0.000 OA
ENDROOT
TORSDOF 0
REMARK  Name = ../refined-set-2016/4q7p/4q7p_pocket.pdb
REMARK  140 active torsions:
REMARK  status: ('A' for Active; 'I' for Inactive)
REMARK    1  A    between atoms: _1  and  _3
REMARK    2  A    between atoms: _3  and  _4
REMARK    3  A    between atoms: _3  and  _6
REMARK    4  A    between atoms: _6  and  _7
REMARK    5  A    between atoms: _17  and  _19
REMARK    6  A    between atoms: _19  and  _20
REMARK    7  A    between atoms: _19  and  _22
REMARK    8  A    between atoms: _22  and  _23
REMARK    9  A    between atoms: _28  and  _29
REMARK   10  A    between atoms: _31  and  _33
REMARK   11  A    between atoms: _33  and  _34
REMARK   12  A    between atoms: _33  and  _36
REMARK   13  A    between atoms: _36  and  _37
REMARK   14  A    between atoms: _39  and  _41
REMARK   15  A    between atoms: _41  and  _42
REMARK   16  A    between atoms: _41  and  _44
REMARK   17  A    between atoms: _44  and  _45
REMARK   18  A    between atoms: _50  and  _52
REMARK   19  A    between atoms: _52  and  _53
REMARK   20  A    between atoms: _52  and  _55
REMARK   21  A    between atoms: _55  and  _56
REMARK   22  A    between atoms: _61  and  _63
REMARK   23  A    between atoms: _63  and  _64
REMARK   24  A    between atoms: _67  and  _69
REMARK   25  A    between atoms: _69  and  _70
REMARK   26  A    between atoms: _69  and  _72
REMARK   27  A    between atoms: _72  and  _73
REMARK   28  A    between atoms: _78  and  _80
REMARK   29  A    between atoms: _80  and  _81
REMARK   30  A    between atoms: _80  and  _83
REMARK   31  A    between atoms: _83  and  _84
REMARK   32  A    between atoms: _87  and  _89
REMARK   33  A    between atoms: _89  and  _90
REMARK   34  A    between atoms: _89  and  _92
REMARK   35  A    between atoms: _92  and  _93
REMARK   36  A    between atoms: _93  and  _94
REMARK   37  A    between atoms: _99  and  _101
REMARK   38  A    between atoms: _112  and  _115
REMARK   39  A    between atoms: _115  and  _116
REMARK   40  A    between atoms: _124  and  _125
REMARK   41  A    between atoms: _133  and  _135
REMARK   42  A    between atoms: _135  and  _136
REMARK   43  A    between atoms: _135  and  _138
REMARK   44  A    between atoms: _138  and  _139
REMARK   45  A    between atoms: _139  and  _140
REMARK   46  A    between atoms: _143  and  _145
REMARK   47  A    between atoms: _145  and  _146
REMARK   48  A    between atoms: _145  and  _148
REMARK   49  A    between atoms: _148  and  _149
REMARK   50  A    between atoms: _154  and  _156
REMARK   51  A    between atoms: _156  and  _157
REMARK   52  A    between atoms: _156  and  _159
REMARK   53  A    between atoms: _159  and  _160
REMARK   54  A    between atoms: _160  and  _161
REMARK   55  A    between atoms: _164  and  _166
REMARK   56  A    between atoms: _166  and  _167
REMARK   57  A    between atoms: _166  and  _169
REMARK   58  A    between atoms: _169  and  _170
REMARK   59  A    between atoms: _173  and  _175
REMARK   60  A    between atoms: _175  and  _176
REMARK   61  A    between atoms: _175  and  _178
REMARK   62  A    between atoms: _178  and  _179
REMARK   63  A    between atoms: _180  and  ZN_390
REMARK   64  A    between atoms: _184  and  _186
REMARK   65  A    between atoms: _186  and  _187
REMARK   66  A    between atoms: _186  and  _189
REMARK   67  A    between atoms: _189  and  _190
REMARK   68  A    between atoms: _193  and  _195
REMARK   69  A    between atoms: _195  and  _196
REMARK   70  A    between atoms: _195  and  _198
REMARK   71  A    between atoms: _201  and  _203
REMARK   72  A    between atoms: _203  and  _204
REMARK   73  A    between atoms: _203  and  _206
REMARK   74  A    between atoms: _206  and  _207
REMARK   75  A    between atoms: _212  and  _214
REMARK   76  A    between atoms: _214  and  _215
REMARK   77  A    between atoms: _214  and  _217
REMARK   78  A    between atoms: _217  and  _218
REMARK   79  A    between atoms: _224  and  _226
REMARK   80  A    between atoms: _226  and  _227
REMARK   81  A    between atoms: _226  and  _229
REMARK   82  A    between atoms: _232  and  _234
REMARK   83  A    between atoms: _234  and  _235
REMARK   84  A    between atoms: _234  and  _237
REMARK   85  A    between atoms: _237  and  _238
REMARK   86  A    between atoms: _241  and  _243
REMARK   87  A    between atoms: _243  and  _244
REMARK   88  A    between atoms: _247  and  _249
REMARK   89  A    between atoms: _249  and  _250
REMARK   90  A    between atoms: _249  and  _252
REMARK   91  A    between atoms: _255  and  _257
REMARK   92  A    between atoms: _257  and  _258
REMARK   93  A    between atoms: _257  and  _260
REMARK   94  A    between atoms: _260  and  _261
REMARK   95  A    between atoms: _264  and  _266
REMARK   96  A    between atoms: _266  and  _267
REMARK   97  A    between atoms: _266  and  _269
REMARK   98  A    between atoms: _269  and  _270
REMARK   99  A    between atoms: _272  and  _274
REMARK  100  A    between atoms: _274  and  _275
REMARK  101  A    between atoms: _274  and  _277
REMARK  102  A    between atoms: _277  and  _278
REMARK  103  A    between atoms: _281  and  _283
REMARK  104  A    between atoms: _283  and  _284
REMARK  105  A    between atoms: _283  and  _286
REMARK  106  A    between atoms: _286  and  _287
REMARK  107  A    between atoms: _290  and  _292
REMARK  108  A    between atoms: _292  and  _293
REMARK  109  A    between atoms: _292  and  _295
REMARK  110  A    between atoms: _295  and  _296
REMARK  111  A    between atoms: _300  and  _301
REMARK  112  A    between atoms: _307  and  _308
REMARK  113  A    between atoms: _313  and  _315
REMARK  114  A    between atoms: _315  and  _316
REMARK  115  A    between atoms: _315  and  _318
REMARK  116  A    between atoms: _318  and  _319
REMARK  117  A    between atoms: _322  and  _324
REMARK  118  A    between atoms: _324  and  _325
REMARK  119  A    between atoms: _324  and  _327
REMARK  120  A    between atoms: _327  and  _328
REMARK  121  A    between atoms: _331  and  _333
REMARK  122  A    between atoms: _333  and  _334
REMARK  123  A    between atoms: _333  and  _336
REMARK  124  A    between atoms: _338  and  _340
REMARK  125  A    between atoms: _340  and  _341
REMARK  126  A    between atoms: _340  and  _343
REMARK  127  A    between atoms: _346  and  _348
REMARK  128  A    between atoms: _348  and  _349
REMARK  129  A    between atoms: _348  and  _351
REMARK  130  A    between atoms: _351  and  _352
REMARK  131  A    between atoms: _362  and  _364
REMARK  132  A    between atoms: _364  and  _365
REMARK  133  A    between atoms: _364  and  _367
REMARK  134  A    between atoms: _367  and  _368
REMARK  135  A    between atoms: _373  and  _375
REMARK  136  A    between atoms: _375  and  _376
REMARK  137  A    between atoms: _375  and  _378
REMARK  138  A    between atoms: _378  and  _379
REMARK  139  A    between atoms: _379  and  _380
REMARK  140  A    between atoms: _380  and  _381
REMARK                            x       y       z     vdW  Elec       q    Type
REMARK                         _______ _______ _______ _____ _____    ______ ____
ROOT
ATOM      1  O   HOH     1      19.745  -4.371  15.741  0.00  0.00    +0.000 OA
ENDROOT
TORSDOF 0
REMARK  Name = ../refined-set-2016/4q7p/4q7p_pocket.pdb
REMARK  140 active torsions:
REMARK  status: ('A' for Active; 'I' for Inactive)
REMARK    1  A    between atoms: _1  and  _3
REMARK    2  A    between atoms: _3  and  _4
REMARK    3  A    between atoms: _3  and  _6
REMARK    4  A    between atoms: _6  and  _7
REMARK    5  A    between atoms: _17  and  _19
REMARK    6  A    between atoms: _19  and  _20
REMARK    7  A    between atoms: _19  and  _22
REMARK    8  A    between atoms: _22  and  _23
REMARK    9  A    between atoms: _28  and  _29
REMARK   10  A    between atoms: _31  and  _33
REMARK   11  A    between atoms: _33  and  _34
REMARK   12  A    between atoms: _33  and  _36
REMARK   13  A    between atoms: _36  and  _37
REMARK   14  A    between atoms: _39  and  _41
REMARK   15  A    between atoms: _41  and  _42
REMARK   16  A    between atoms: _41  and  _44
REMARK   17  A    between atoms: _44  and  _45
REMARK   18  A    between atoms: _50  and  _52
REMARK   19  A    between atoms: _52  and  _53
REMARK   20  A    between atoms: _52  and  _55
REMARK   21  A    between atoms: _55  and  _56
REMARK   22  A    between atoms: _61  and  _63
REMARK   23  A    between atoms: _63  and  _64
REMARK   24  A    between atoms: _67  and  _69
REMARK   25  A    between atoms: _69  and  _70
REMARK   26  A    between atoms: _69  and  _72
REMARK   27  A    between atoms: _72  and  _73
REMARK   28  A    between atoms: _78  and  _80
REMARK   29  A    between atoms: _80  and  _81
REMARK   30  A    between atoms: _80  and  _83
REMARK   31  A    between atoms: _83  and  _84
REMARK   32  A    between atoms: _87  and  _89
REMARK   33  A    between atoms: _89  and  _90
REMARK   34  A    between atoms: _89  and  _92
REMARK   35  A    between atoms: _92  and  _93
REMARK   36  A    between atoms: _93  and  _94
REMARK   37  A    between atoms: _99  and  _101
REMARK   38  A    between atoms: _112  and  _115
REMARK   39  A    between atoms: _115  and  _116
REMARK   40  A    between atoms: _124  and  _125
REMARK   41  A    between atoms: _133  and  _135
REMARK   42  A    between atoms: _135  and  _136
REMARK   43  A    between atoms: _135  and  _138
REMARK   44  A    between atoms: _138  and  _139
REMARK   45  A    between atoms: _139  and  _140
REMARK   46  A    between atoms: _143  and  _145
REMARK   47  A    between atoms: _145  and  _146
REMARK   48  A    between atoms: _145  and  _148
REMARK   49  A    between atoms: _148  and  _149
REMARK   50  A    between atoms: _154  and  _156
REMARK   51  A    between atoms: _156  and  _157
REMARK   52  A    between atoms: _156  and  _159
REMARK   53  A    between atoms: _159  and  _160
REMARK   54  A    between atoms: _160  and  _161
REMARK   55  A    between atoms: _164  and  _166
REMARK   56  A    between atoms: _166  and  _167
REMARK   57  A    between atoms: _166  and  _169
REMARK   58  A    between atoms: _169  and  _170
REMARK   59  A    between atoms: _173  and  _175
REMARK   60  A    between atoms: _175  and  _176
REMARK   61  A    between atoms: _175  and  _178
REMARK   62  A    between atoms: _178  and  _179
REMARK   63  A    between atoms: _180  and  ZN_390
REMARK   64  A    between atoms: _184  and  _186
REMARK   65  A    between atoms: _186  and  _187
REMARK   66  A    between atoms: _186  and  _189
REMARK   67  A    between atoms: _189  and  _190
REMARK   68  A    between atoms: _193  and  _195
REMARK   69  A    between atoms: _195  and  _196
REMARK   70  A    between atoms: _195  and  _198
REMARK   71  A    between atoms: _201  and  _203
REMARK   72  A    between atoms: _203  and  _204
REMARK   73  A    between atoms: _203  and  _206
REMARK   74  A    between atoms: _206  and  _207
REMARK   75  A    between atoms: _212  and  _214
REMARK   76  A    between atoms: _214  and  _215
REMARK   77  A    between atoms: _214  and  _217
REMARK   78  A    between atoms: _217  and  _218
REMARK   79  A    between atoms: _224  and  _226
REMARK   80  A    between atoms: _226  and  _227
REMARK   81  A    between atoms: _226  and  _229
REMARK   82  A    between atoms: _232  and  _234
REMARK   83  A    between atoms: _234  and  _235
REMARK   84  A    between atoms: _234  and  _237
REMARK   85  A    between atoms: _237  and  _238
REMARK   86  A    between atoms: _241  and  _243
REMARK   87  A    between atoms: _243  and  _244
REMARK   88  A    between atoms: _247  and  _249
REMARK   89  A    between atoms: _249  and  _250
REMARK   90  A    between atoms: _249  and  _252
REMARK   91  A    between atoms: _255  and  _257
REMARK   92  A    between atoms: _257  and  _258
REMARK   93  A    between atoms: _257  and  _260
REMARK   94  A    between atoms: _260  and  _261
REMARK   95  A    between atoms: _264  and  _266
REMARK   96  A    between atoms: _266  and  _267
REMARK   97  A    between atoms: _266  and  _269
REMARK   98  A    between atoms: _269  and  _270
REMARK   99  A    between atoms: _272  and  _274
REMARK  100  A    between atoms: _274  and  _275
REMARK  101  A    between atoms: _274  and  _277
REMARK  102  A    between atoms: _277  and  _278
REMARK  103  A    between atoms: _281  and  _283
REMARK  104  A    between atoms: _283  and  _284
REMARK  105  A    between atoms: _283  and  _286
REMARK  106  A    between atoms: _286  and  _287
REMARK  107  A    between atoms: _290  and  _292
REMARK  108  A    between atoms: _292  and  _293
REMARK  109  A    between atoms: _292  and  _295
REMARK  110  A    between atoms: _295  and  _296
REMARK  111  A    between atoms: _300  and  _301
REMARK  112  A    between atoms: _307  and  _308
REMARK  113  A    between atoms: _313  and  _315
REMARK  114  A    between atoms: _315  and  _316
REMARK  115  A    between atoms: _315  and  _318
REMARK  116  A    between atoms: _318  and  _319
REMARK  117  A    between atoms: _322  and  _324
REMARK  118  A    between atoms: _324  and  _325
REMARK  119  A    between atoms: _324  and  _327
REMARK  120  A    between atoms: _327  and  _328
REMARK  121  A    between atoms: _331  and  _333
REMARK  122  A    between atoms: _333  and  _334
REMARK  123  A    between atoms: _333  and  _336
REMARK  124  A    between atoms: _338  and  _340
REMARK  125  A    between atoms: _340  and  _341
REMARK  126  A    between atoms: _340  and  _343
REMARK  127  A    between atoms: _346  and  _348
REMARK  128  A    between atoms: _348  and  _349
REMARK  129  A    between atoms: _348  and  _351
REMARK  130  A    between atoms: _351  and  _352
REMARK  131  A    between atoms: _362  and  _364
REMARK  132  A    between atoms: _364  and  _365
REMARK  133  A    between atoms: _364  and  _367
REMARK  134  A    between atoms: _367  and  _368
REMARK  135  A    between atoms: _373  and  _375
REMARK  136  A    between atoms: _375  and  _376
REMARK  137  A    between atoms: _375  and  _378
REMARK  138  A    between atoms: _378  and  _379
REMARK  139  A    between atoms: _379  and  _380
REMARK  140  A    between atoms: _380  and  _381
REMARK                            x       y       z     vdW  Elec       q    Type
REMARK                         _______ _______ _______ _____ _____    ______ ____
ROOT
ATOM      1  O   HOH     1      18.557  -3.530  11.367  0.00  0.00    +0.000 OA
ENDROOT
TORSDOF 0
REMARK  Name = ../refined-set-2016/4q7p/4q7p_pocket.pdb
REMARK  140 active torsions:
REMARK  status: ('A' for Active; 'I' for Inactive)
REMARK    1  A    between atoms: _1  and  _3
REMARK    2  A    between atoms: _3  and  _4
REMARK    3  A    between atoms: _3  and  _6
REMARK    4  A    between atoms: _6  and  _7
REMARK    5  A    between atoms: _17  and  _19
REMARK    6  A    between atoms: _19  and  _20
REMARK    7  A    between atoms: _19  and  _22
REMARK    8  A    between atoms: _22  and  _23
REMARK    9  A    between atoms: _28  and  _29
REMARK   10  A    between atoms: _31  and  _33
REMARK   11  A    between atoms: _33  and  _34
REMARK   12  A    between atoms: _33  and  _36
REMARK   13  A    between atoms: _36  and  _37
REMARK   14  A    between atoms: _39  and  _41
REMARK   15  A    between atoms: _41  and  _42
REMARK   16  A    between atoms: _41  and  _44
REMARK   17  A    between atoms: _44  and  _45
REMARK   18  A    between atoms: _50  and  _52
REMARK   19  A    between atoms: _52  and  _53
REMARK   20  A    between atoms: _52  and  _55
REMARK   21  A    between atoms: _55  and  _56
REMARK   22  A    between atoms: _61  and  _63
REMARK   23  A    between atoms: _63  and  _64
REMARK   24  A    between atoms: _67  and  _69
REMARK   25  A    between atoms: _69  and  _70
REMARK   26  A    between atoms: _69  and  _72
REMARK   27  A    between atoms: _72  and  _73
REMARK   28  A    between atoms: _78  and  _80
REMARK   29  A    between atoms: _80  and  _81
REMARK   30  A    between atoms: _80  and  _83
REMARK   31  A    between atoms: _83  and  _84
REMARK   32  A    between atoms: _87  and  _89
REMARK   33  A    between atoms: _89  and  _90
REMARK   34  A    between atoms: _89  and  _92
REMARK   35  A    between atoms: _92  and  _93
REMARK   36  A    between atoms: _93  and  _94
REMARK   37  A    between atoms: _99  and  _101
REMARK   38  A    between atoms: _112  and  _115
REMARK   39  A    between atoms: _115  and  _116
REMARK   40  A    between atoms: _124  and  _125
REMARK   41  A    between atoms: _133  and  _135
REMARK   42  A    between atoms: _135  and  _136
REMARK   43  A    between atoms: _135  and  _138
REMARK   44  A    between atoms: _138  and  _139
REMARK   45  A    between atoms: _139  and  _140
REMARK   46  A    between atoms: _143  and  _145
REMARK   47  A    between atoms: _145  and  _146
REMARK   48  A    between atoms: _145  and  _148
REMARK   49  A    between atoms: _148  and  _149
REMARK   50  A    between atoms: _154  and  _156
REMARK   51  A    between atoms: _156  and  _157
REMARK   52  A    between atoms: _156  and  _159
REMARK   53  A    between atoms: _159  and  _160
REMARK   54  A    between atoms: _160  and  _161
REMARK   55  A    between atoms: _164  and  _166
REMARK   56  A    between atoms: _166  and  _167
REMARK   57  A    between atoms: _166  and  _169
REMARK   58  A    between atoms: _169  and  _170
REMARK   59  A    between atoms: _173  and  _175
REMARK   60  A    between atoms: _175  and  _176
REMARK   61  A    between atoms: _175  and  _178
REMARK   62  A    between atoms: _178  and  _179
REMARK   63  A    between atoms: _180  and  ZN_390
REMARK   64  A    between atoms: _184  and  _186
REMARK   65  A    between atoms: _186  and  _187
REMARK   66  A    between atoms: _186  and  _189
REMARK   67  A    between atoms: _189  and  _190
REMARK   68  A    between atoms: _193  and  _195
REMARK   69  A    between atoms: _195  and  _196
REMARK   70  A    between atoms: _195  and  _198
REMARK   71  A    between atoms: _201  and  _203
REMARK   72  A    between atoms: _203  and  _204
REMARK   73  A    between atoms: _203  and  _206
REMARK   74  A    between atoms: _206  and  _207
REMARK   75  A    between atoms: _212  and  _214
REMARK   76  A    between atoms: _214  and  _215
REMARK   77  A    between atoms: _214  and  _217
REMARK   78  A    between atoms: _217  and  _218
REMARK   79  A    between atoms: _224  and  _226
REMARK   80  A    between atoms: _226  and  _227
REMARK   81  A    between atoms: _226  and  _229
REMARK   82  A    between atoms: _232  and  _234
REMARK   83  A    between atoms: _234  and  _235
REMARK   84  A    between atoms: _234  and  _237
REMARK   85  A    between atoms: _237  and  _238
REMARK   86  A    between atoms: _241  and  _243
REMARK   87  A    between atoms: _243  and  _244
REMARK   88  A    between atoms: _247  and  _249
REMARK   89  A    between atoms: _249  and  _250
REMARK   90  A    between atoms: _249  and  _252
REMARK   91  A    between atoms: _255  and  _257
REMARK   92  A    between atoms: _257  and  _258
REMARK   93  A    between atoms: _257  and  _260
REMARK   94  A    between atoms: _260  and  _261
REMARK   95  A    between atoms: _264  and  _266
REMARK   96  A    between atoms: _266  and  _267
REMARK   97  A    between atoms: _266  and  _269
REMARK   98  A    between atoms: _269  and  _270
REMARK   99  A    between atoms: _272  and  _274
REMARK  100  A    between atoms: _274  and  _275
REMARK  101  A    between atoms: _274  and  _277
REMARK  102  A    between atoms: _277  and  _278
REMARK  103  A    between atoms: _281  and  _283
REMARK  104  A    between atoms: _283  and  _284
REMARK  105  A    between atoms: _283  and  _286
REMARK  106  A    between atoms: _286  and  _287
REMARK  107  A    between atoms: _290  and  _292
REMARK  108  A    between atoms: _292  and  _293
REMARK  109  A    between atoms: _292  and  _295
REMARK  110  A    between atoms: _295  and  _296
REMARK  111  A    between atoms: _300  and  _301
REMARK  112  A    between atoms: _307  and  _308
REMARK  113  A    between atoms: _313  and  _315
REMARK  114  A    between atoms: _315  and  _316
REMARK  115  A    between atoms: _315  and  _318
REMARK  116  A    between atoms: _318  and  _319
REMARK  117  A    between atoms: _322  and  _324
REMARK  118  A    between atoms: _324  and  _325
REMARK  119  A    between atoms: _324  and  _327
REMARK  120  A    between atoms: _327  and  _328
REMARK  121  A    between atoms: _331  and  _333
REMARK  122  A    between atoms: _333  and  _334
REMARK  123  A    between atoms: _333  and  _336
REMARK  124  A    between atoms: _338  and  _340
REMARK  125  A    between atoms: _340  and  _341
REMARK  126  A    between atoms: _340  and  _343
REMARK  127  A    between atoms: _346  and  _348
REMARK  128  A    between atoms: _348  and  _349
REMARK  129  A    between atoms: _348  and  _351
REMARK  130  A    between atoms: _351  and  _352
REMARK  131  A    between atoms: _362  and  _364
REMARK  132  A    between atoms: _364  and  _365
REMARK  133  A    between atoms: _364  and  _367
REMARK  134  A    between atoms: _367  and  _368
REMARK  135  A    between atoms: _373  and  _375
REMARK  136  A    between atoms: _375  and  _376
REMARK  137  A    between atoms: _375  and  _378
REMARK  138  A    between atoms: _378  and  _379
REMARK  139  A    between atoms: _379  and  _380
REMARK  140  A    between atoms: _380  and  _381
REMARK                            x       y       z     vdW  Elec       q    Type
REMARK                         _______ _______ _______ _____ _____    ______ ____
ROOT
ATOM      1  O   HOH     1      19.159   0.128  10.264  0.00  0.00    +0.000 OA
ENDROOT
TORSDOF 0
