REMARK  Name = ../refined-set-2016/4uma/4uma_pocket.pdb
REMARK  154 active torsions:
REMARK  status: ('A' for Active; 'I' for Inactive)
REMARK    1  A    between atoms: _1  and  _3
REMARK    2  A    between atoms: _3  and  _4
REMARK    3  A    between atoms: _7  and  _8
REMARK    4  A    between atoms: _13  and  _15
REMARK    5  A    between atoms: _15  and  _16
REMARK    6  A    between atoms: _15  and  _18
REMARK    7  A    between atoms: _18  and  _19
REMARK    8  A    between atoms: _19  and  MN_355
REMARK    9  A    between atoms: _20  and  _22
REMARK   10  A    between atoms: _22  and  _23
REMARK   11  A    between atoms: _22  and  _25
REMARK   12  A    between atoms: _25  and  _26
REMARK   13  A    between atoms: _28  and  _30
REMARK   14  A    between atoms: _30  and  _31
REMARK   15  A    between atoms: _30  and  _33
REMARK   16  A    between atoms: _33  and  _34
REMARK   17  A    between atoms: _34  and  _35
REMARK   18  A    between atoms: _35  and  _36
REMARK   19  A    between atoms: _45  and  _47
REMARK   20  A    between atoms: _47  and  _48
REMARK   21  A    between atoms: _47  and  _50
REMARK   22  A    between atoms: _50  and  _51
REMARK   23  A    between atoms: _56  and  _57
REMARK   24  A    between atoms: _59  and  _61
REMARK   25  A    between atoms: _61  and  _62
REMARK   26  A    between atoms: _61  and  _64
REMARK   27  A    between atoms: _64  and  _65
REMARK   28  A    between atoms: _65  and  _66
REMARK   29  A    between atoms: _69  and  _71
REMARK   30  A    between atoms: _71  and  _72
REMARK   31  A    between atoms: _71  and  _74
REMARK   32  A    between atoms: _74  and  _75
REMARK   33  A    between atoms: _75  and  _76
REMARK   34  A    between atoms: _76  and  _77
REMARK   35  A    between atoms: _77  and  _78
REMARK   36  A    between atoms: _83  and  _84
REMARK   37  A    between atoms: _89  and  _91
REMARK   38  A    between atoms: _91  and  _92
REMARK   39  A    between atoms: _91  and  _94
REMARK   40  A    between atoms: _94  and  _95
REMARK   41  A    between atoms: _95  and  _96
REMARK   42  A    between atoms: _96  and  _97
REMARK   43  A    between atoms: _106  and  _108
REMARK   44  A    between atoms: _108  and  _109
REMARK   45  A    between atoms: _108  and  _111
REMARK   46  A    between atoms: _111  and  _112
REMARK   47  A    between atoms: _112  and  _113
REMARK   48  A    between atoms: _116  and  _118
REMARK   49  A    between atoms: _118  and  _119
REMARK   50  A    between atoms: _122  and  _124
REMARK   51  A    between atoms: _124  and  _125
REMARK   52  A    between atoms: _124  and  _127
REMARK   53  A    between atoms: _127  and  _128
REMARK   54  A    between atoms: _131  and  _133
REMARK   55  A    between atoms: _133  and  _134
REMARK   56  A    between atoms: _136  and  _138
REMARK   57  A    between atoms: _138  and  _139
REMARK   58  A    between atoms: _142  and  _144
REMARK   59  A    between atoms: _144  and  _145
REMARK   60  A    between atoms: _144  and  _147
REMARK   61  A    between atoms: _147  and  _148
REMARK   62  A    between atoms: _148  and  _149
REMARK   63  A    between atoms: _149  and  _150
REMARK   64  A    between atoms: _159  and  _161
REMARK   65  A    between atoms: _161  and  _162
REMARK   66  A    between atoms: _161  and  _164
REMARK   67  A    between atoms: _164  and  _165
REMARK   68  A    between atoms: _168  and  _170
REMARK   69  A    between atoms: _170  and  _171
REMARK   70  A    between atoms: _170  and  _173
REMARK   71  A    between atoms: _173  and  _174
REMARK   72  A    between atoms: _177  and  _179
REMARK   73  A    between atoms: _179  and  _180
REMARK   74  A    between atoms: _179  and  _182
REMARK   75  A    between atoms: _182  and  _183
REMARK   76  A    between atoms: _183  and  _184
REMARK   77  A    between atoms: _184  and  _185
REMARK   78  A    between atoms: _185  and  _186
REMARK   79  A    between atoms: _190  and  _192
REMARK   80  A    between atoms: _192  and  _193
REMARK   81  A    between atoms: _192  and  _195
REMARK   82  A    between atoms: _195  and  _196
REMARK   83  A    between atoms: _201  and  _203
REMARK   84  A    between atoms: _203  and  _204
REMARK   85  A    between atoms: _206  and  _208
REMARK   86  A    between atoms: _208  and  _209
REMARK   87  A    between atoms: _208  and  _211
REMARK   88  A    between atoms: _211  and  _212
REMARK   89  A    between atoms: _215  and  _217
REMARK   90  A    between atoms: _217  and  _218
REMARK   91  A    between atoms: _217  and  _220
REMARK   92  A    between atoms: _220  and  _221
REMARK   93  A    between atoms: _224  and  _226
REMARK   94  A    between atoms: _226  and  _227
REMARK   95  A    between atoms: _226  and  _229
REMARK   96  A    between atoms: _229  and  _230
REMARK   97  A    between atoms: _233  and  _235
REMARK   98  A    between atoms: _235  and  _236
REMARK   99  A    between atoms: _235  and  _238
REMARK  100  A    between atoms: _238  and  _239
REMARK  101  A    between atoms: _239  and  _240
REMARK  102  A    between atoms: _240  and  _241
REMARK  103  A    between atoms: _250  and  _252
REMARK  104  A    between atoms: _252  and  _253
REMARK  105  A    between atoms: _255  and  _257
REMARK  106  A    between atoms: _257  and  _258
REMARK  107  A    between atoms: _257  and  _260
REMARK  108  A    between atoms: _260  and  _261
REMARK  109  A    between atoms: _264  and  _266
REMARK  110  A    between atoms: _266  and  _267
REMARK  111  A    between atoms: _266  and  _269
REMARK  112  A    between atoms: _269  and  _270
REMARK  113  A    between atoms: _272  and  _274
REMARK  114  A    between atoms: _274  and  _275
REMARK  115  A    between atoms: _274  and  _277
REMARK  116  A    between atoms: _277  and  _278
REMARK  117  A    between atoms: _282  and  MN_355
REMARK  118  A    between atoms: _283  and  _285
REMARK  119  A    between atoms: _285  and  _286
REMARK  120  A    between atoms: _289  and  _291
REMARK  121  A    between atoms: _291  and  _292
REMARK  122  A    between atoms: _291  and  _294
REMARK  123  A    between atoms: _294  and  _295
REMARK  124  A    between atoms: _300  and  _302
REMARK  125  A    between atoms: _302  and  _303
REMARK  126  A    between atoms: _302  and  _305
REMARK  127  A    between atoms: _305  and  _306
REMARK  128  A    between atoms: _306  and  _307
REMARK  129  A    between atoms: _309  and  _311
REMARK  130  A    between atoms: _311  and  _312
REMARK  131  A    between atoms: _311  and  _314
REMARK  132  A    between atoms: _314  and  _315
REMARK  133  A    between atoms: _315  and  _316
REMARK  134  A    between atoms: _316  and  _318
REMARK  135  A    between atoms: _318  and  MN_355
REMARK  136  A    between atoms: _319  and  _321
REMARK  137  A    between atoms: _321  and  _322
REMARK  138  A    between atoms: _321  and  _324
REMARK  139  A    between atoms: _324  and  _325
REMARK  140  A    between atoms: _327  and  _329
REMARK  141  A    between atoms: _329  and  _330
REMARK  142  A    between atoms: _329  and  _332
REMARK  143  A    between atoms: _332  and  _333
REMARK  144  A    between atoms: _336  and  _338
REMARK  145  A    between atoms: _338  and  _339
REMARK  146  A    between atoms: _338  and  _341
REMARK  147  A    between atoms: _341  and  _342
REMARK  148  A    between atoms: _342  and  _344
REMARK  149  A    between atoms: _344  and  MN_355
REMARK  150  A    between atoms: _345  and  _347
REMARK  151  A    between atoms: _347  and  _348
REMARK  152  A    between atoms: _347  and  _350
REMARK  153  A    between atoms: _350  and  _351
REMARK  154  A    between atoms: _351  and  _352
REMARK                            x       y       z     vdW  Elec       q    Type
REMARK                         _______ _______ _______ _____ _____    ______ ____
ROOT
ATOM      1 MN   UNK A   3      -3.100 -85.020   2.454  0.00  0.00    +0.000 Mn
ENDROOT
BRANCH   1   2
ATOM      2  N   UNK A   3      -4.390 -86.946   2.295  0.00  0.00    +0.000 N 
ATOM      3  C   UNK A   3      -5.073 -87.401   3.395  0.00  0.00    +0.000 A 
ATOM      4  C   UNK A   3      -5.408 -88.690   3.152  0.00  0.00    +0.000 A 
ATOM      5  N   UNK A   3      -4.893 -88.990   1.910  0.00  0.00    +0.000 NA
ATOM      6  C   UNK A   3      -4.293 -87.924   1.416  0.00  0.00    +0.000 A 
BRANCH   4   7
ATOM      7  C   UNK A   3      -6.121 -89.695   4.002  0.00  0.00    +0.000 C 
BRANCH   7   8
ATOM      8  C   UNK A   3      -5.295 -90.140   5.211  0.00  0.00    +0.000 C 
BRANCH   8   9
ATOM      9  C   UNK A   3      -6.020 -91.140   6.110  0.00  0.00    +0.000 C 
ATOM     10  O   UNK A   3      -5.452 -91.605   7.086  0.00  0.00    +0.000 OA
ATOM     11  N   UNK A   3      -7.268 -91.453   5.792  0.00  0.00    +0.000 N 
ATOM     12  H   UNK A   3      -7.690 -91.047   4.933  0.00  0.00    +0.000 HD
BRANCH  11  13
ATOM     13  C   UNK A   3      -8.062 -92.353   6.619  0.00  0.00    +0.000 C 
ATOM     14  C   UNK A   3      -9.512 -92.377   6.165  0.00  0.00    +0.000 C 
BRANCH  13  15
ATOM     15  C   UNK A   3      -7.490 -93.770   6.705  0.00  0.00    +0.000 C 
ATOM     16  O   UNK A   3      -7.798 -94.506   7.628  0.00  0.00    +0.000 OA
ATOM     17  N   SER A   4      -6.707 -94.168   5.712  0.00  0.00    +0.000 N 
ATOM     18  H   SER A   4      -6.498 -93.511   4.933  0.00  0.00    +0.000 HD
BRANCH  17  19
ATOM     19  CA  SER A   4      -6.139 -95.496   5.691  0.00  0.00    +0.000 C 
BRANCH  19  20
ATOM     20  C   SER A   4      -4.900 -95.670   6.572  0.00  0.00    +0.000 C 
ATOM     21  O   SER A   4      -4.643 -96.768   7.052  0.00  0.00    +0.000 OA
ENDBRANCH  19  20
BRANCH  19  22
ATOM     22  CB  SER A   4      -5.872 -95.940   4.257  0.00  0.00    +0.000 C 
BRANCH  22  23
ATOM     23  CG  SER A   4      -7.088 -96.569   3.619  0.00  0.00    +0.000 C 
ATOM     24  OD1 SER A   4      -7.969 -97.085   4.323  0.00  0.00    +0.000 OA
ATOM     25  ND2 SER A   4      -7.116 -96.599   2.298  0.00  0.00    +0.000 N 
ATOM     26 HD21 SER A   4      -7.901 -97.070   1.805  0.00  0.00    +0.000 HD
ATOM     27 HD22 SER A   4      -6.353 -96.151   1.751  0.00  0.00    +0.000 HD
ENDBRANCH  22  23
ENDBRANCH  19  22
ENDBRANCH  17  19
ENDBRANCH  13  15
ENDBRANCH  11  13
ENDBRANCH   8   9
BRANCH   8  28
ATOM     28  N   UNK A   3      -3.996 -90.630   4.773  0.00  0.00    +0.000 N 
ATOM     29  H   UNK A   3      -3.147 -90.073   4.997  0.00  0.00    +0.000 HD
ATOM     30  C   UNK A   1      -3.859 -91.764   4.098  0.00  0.00    +0.000 C 
ATOM     31  O   UNK A   1      -4.768 -92.571   3.948  0.00  0.00    +0.000 OA
BRANCH  30  32
ATOM     32  C   UNK A   1      -2.456 -92.044   3.565  0.00  0.00    +0.000 C 
BRANCH  32  33
ATOM     33  N   UNK A   1      -2.376 -93.111   2.575  0.00  0.00    +0.000 NA
ATOM     34  H   UNK A   1      -2.497 -92.870   1.571  0.00  0.00    +0.000 HD
ENDBRANCH  32  33
BRANCH  32  35
ATOM     35  C   UNK A   1      -1.829 -90.759   3.029  0.00  0.00    +0.000 C 
BRANCH  35  36
ATOM     36  O   UNK A   1      -1.440 -89.922   4.093  0.00  0.00    +0.000 OA
ATOM     37  H   UNK A   1      -1.036 -89.094   3.730  0.00  0.00    +0.000 HD
ENDBRANCH  35  36
ENDBRANCH  32  35
ENDBRANCH  30  32
ENDBRANCH   8  28
ENDBRANCH   7   8
ENDBRANCH   4   7
ENDBRANCH   1   2
BRANCH   1  38
ATOM     38  S   UNK A   3      -1.691 -82.878   2.397  0.00  0.00    +0.000 S 
BRANCH  38  39
ATOM     39  C   UNK A   3       0.048 -83.326   2.100  0.00  0.00    +0.000 C 
BRANCH  39  40
ATOM     40  C   UNK A   3       0.317 -83.508   0.615  0.00  0.00    +0.000 C 
BRANCH  40  42
ATOM     41  C   UNK A   2       2.197 -83.936  -0.835  0.00  0.00    +0.000 C 
ATOM     42  N   UNK A   3       1.734 -83.735   0.385  0.00  0.00    +0.000 N 
ATOM     43  H   UNK A   3       2.391 -83.739   1.191  0.00  0.00    +0.000 HD
ATOM     44  O   UNK A   2       1.472 -84.103  -1.821  0.00  0.00    +0.000 OA
BRANCH  41  48
ATOM     45  C   UNK A   1       3.923 -86.034  -2.217  0.00  0.00    +0.000 C 
ATOM     46  O   UNK A   1       3.181 -86.630  -1.450  0.00  0.00    +0.000 OA
ATOM     47  N   UNK A   2       4.219 -84.745  -2.077  0.00  0.00    +0.000 N 
ATOM     48  C   UNK A   2       3.728 -83.979  -0.939  0.00  0.00    +0.000 C 
ATOM     49  C   UNK A   2       4.277 -82.581  -1.199  0.00  0.00    +0.000 C 
ATOM     50  C   UNK A   2       5.541 -82.818  -1.976  0.00  0.00    +0.000 C 
ATOM     51  C   UNK A   2       5.250 -84.015  -2.845  0.00  0.00    +0.000 C 
BRANCH  45  52
ATOM     52  C   UNK A   1       4.570 -86.748  -3.384  0.00  0.00    +0.000 C 
BRANCH  52  53
ATOM     53  N   UNK A   1       3.967 -88.046  -3.605  0.00  0.00    +0.000 NA
ATOM     54  H   UNK A   1       3.506 -88.531  -2.809  0.00  0.00    +0.000 HD
ENDBRANCH  52  53
ENDBRANCH  45  52
ENDBRANCH  41  48
ENDBRANCH  40  42
BRANCH  40  55
ATOM     55  C   UNK A   3      -0.073 -82.248  -0.199  0.00  0.00    +0.000 C 
ATOM     56  N   SER A   4       0.754 -81.215  -0.071  0.00  0.00    +0.000 N 
ATOM     57  H   SER A   4       1.587 -81.327   0.542  0.00  0.00    +0.000 HD
ATOM     58  O   UNK A   3      -1.073 -82.237  -0.935  0.00  0.00    +0.000 OA
BRANCH  56  59
ATOM     59  CA  SER A   4       0.561 -79.936  -0.739  0.00  0.00    +0.000 C 
BRANCH  59  60
ATOM     60  C   SER A   4       1.901 -79.375  -1.182  0.00  0.00    +0.000 C 
ATOM     61  O   SER A   4       2.914 -79.604  -0.524  0.00  0.00    +0.000 OA
ENDBRANCH  59  60
BRANCH  59  62
ATOM     62  CB  SER A   4      -0.108 -78.939   0.232  0.00  0.00    +0.000 C 
BRANCH  62  63
ATOM     63  OG  SER A   4       0.701 -78.700   1.388  0.00  0.00    +0.000 OA
ATOM     64  H   SER A   4       1.573 -78.324   1.107  0.00  0.00    +0.000 HD
ENDBRANCH  62  63
ENDBRANCH  59  62
ENDBRANCH  56  59
ENDBRANCH  40  55
ENDBRANCH  39  40
ENDBRANCH  38  39
ENDBRANCH   1  38
BRANCH   1  65
ATOM     65  O   UNK A   3      -3.609 -84.590   4.318  0.00  0.00    +0.000 OA
BRANCH  65  66
ATOM     66  C   UNK A   3      -3.002 -84.237   5.354  0.00  0.00    +0.000 C 
ATOM     67  O   UNK A   3      -3.525 -83.575   6.267  0.00  0.00    +0.000 OA
BRANCH  66  68
ATOM     68  C   UNK A   3      -1.542 -84.640   5.483  0.00  0.00    +0.000 C 
BRANCH  68  69
ATOM     69  C   UNK A   3      -0.701 -83.612   6.254  0.00  0.00    +0.000 C 
BRANCH  69  70
ATOM     70  N   UNK A   3      -0.748 -82.297   5.621  0.00  0.00    +0.000 N 
ATOM     71  C   UNK A   1      -0.231 -81.264   6.289  0.00  0.00    +0.000 C 
ATOM     72  O   UNK A   1       0.318 -81.414   7.371  0.00  0.00    +0.000 OA
ATOM     73  H   UNK A   3      -1.171 -82.170   4.679  0.00  0.00    +0.000 HD
BRANCH  71  74
ATOM     74  C   UNK A   1      -0.310 -79.852   5.699  0.00  0.00    +0.000 C 
BRANCH  74  75
ATOM     75  C   UNK A   1      -1.097 -79.787   4.372  0.00  0.00    +0.000 C 
ATOM     76  C   UNK A   1      -1.408 -78.346   4.022  0.00  0.00    +0.000 C 
BRANCH  75  77
ATOM     77  O   UNK A   1      -0.332 -80.368   3.317  0.00  0.00    +0.000 OA
ATOM     78  H   UNK A   1       0.518 -79.871   3.215  0.00  0.00    +0.000 HD
ENDBRANCH  75  77
ENDBRANCH  74  75
BRANCH  74  79
ATOM     79  N   UNK A   1       1.035 -79.290   5.590  0.00  0.00    +0.000 NA
ATOM     80  H   UNK A   1       1.731 -79.754   4.972  0.00  0.00    +0.000 HD
ENDBRANCH  74  79
ENDBRANCH  71  74
ENDBRANCH  69  70
BRANCH  69  81
ATOM     81  C   UNK A   3       0.760 -84.089   6.337  0.00  0.00    +0.000 C 
ATOM     82  O   UNK A   2       1.571 -83.783   5.441  0.00  0.00    +0.000 OA
ENDBRANCH  69  81
ENDBRANCH  68  69
ENDBRANCH  66  68
ENDBRANCH  65  66
ENDBRANCH   1  65
BRANCH   1  83
ATOM     83  O   UNK A   1      -1.557 -85.945   1.600  0.00  0.00    +0.000 OA
BRANCH  83  84
ATOM     84  C   UNK A   1      -1.081 -87.010   2.074  0.00  0.00    +0.000 C 
ATOM     85  O   UNK A   1      -1.330 -87.410   3.241  0.00  0.00    +0.000 OA
BRANCH  84  86
ATOM     86  C   UNK A   1      -0.097 -87.774   1.198  0.00  0.00    +0.000 C 
BRANCH  86  87
ATOM     87  C   UNK A   1       1.190 -88.205   1.862  0.00  0.00    +0.000 C 
BRANCH  87  88
ATOM     88  C   UNK A   1       2.152 -88.812   0.841  0.00  0.00    +0.000 C 
BRANCH  88  89
ATOM     89  C   UNK A   1       3.587 -88.848   1.340  0.00  0.00    +0.000 C 
ATOM     90  O   UNK A   1       3.905 -89.450   2.377  0.00  0.00    +0.000 OA
ENDBRANCH  88  89
BRANCH  88  91
ATOM     91  N   UNK A   1       1.770 -90.156   0.473  0.00  0.00    +0.000 NA
ATOM     92  H   UNK A   1       1.448 -90.807   1.217  0.00  0.00    +0.000 HD
ENDBRANCH  88  91
ENDBRANCH  87  88
ENDBRANCH  86  87
ENDBRANCH  84  86
ENDBRANCH  83  84
ENDBRANCH   1  83
TORSDOF 44
REMARK  Name = ../refined-set-2016/4uma/4uma_pocket.pdb
REMARK  154 active torsions:
REMARK  status: ('A' for Active; 'I' for Inactive)
REMARK    1  A    between atoms: _1  and  _3
REMARK    2  A    between atoms: _3  and  _4
REMARK    3  A    between atoms: _7  and  _8
REMARK    4  A    between atoms: _13  and  _15
REMARK    5  A    between atoms: _15  and  _16
REMARK    6  A    between atoms: _15  and  _18
REMARK    7  A    between atoms: _18  and  _19
REMARK    8  A    between atoms: _19  and  MN_355
REMARK    9  A    between atoms: _20  and  _22
REMARK   10  A    between atoms: _22  and  _23
REMARK   11  A    between atoms: _22  and  _25
REMARK   12  A    between atoms: _25  and  _26
REMARK   13  A    between atoms: _28  and  _30
REMARK   14  A    between atoms: _30  and  _31
REMARK   15  A    between atoms: _30  and  _33
REMARK   16  A    between atoms: _33  and  _34
REMARK   17  A    between atoms: _34  and  _35
REMARK   18  A    between atoms: _35  and  _36
REMARK   19  A    between atoms: _45  and  _47
REMARK   20  A    between atoms: _47  and  _48
REMARK   21  A    between atoms: _47  and  _50
REMARK   22  A    between atoms: _50  and  _51
REMARK   23  A    between atoms: _56  and  _57
REMARK   24  A    between atoms: _59  and  _61
REMARK   25  A    between atoms: _61  and  _62
REMARK   26  A    between atoms: _61  and  _64
REMARK   27  A    between atoms: _64  and  _65
REMARK   28  A    between atoms: _65  and  _66
REMARK   29  A    between atoms: _69  and  _71
REMARK   30  A    between atoms: _71  and  _72
REMARK   31  A    between atoms: _71  and  _74
REMARK   32  A    between atoms: _74  and  _75
REMARK   33  A    between atoms: _75  and  _76
REMARK   34  A    between atoms: _76  and  _77
REMARK   35  A    between atoms: _77  and  _78
REMARK   36  A    between atoms: _83  and  _84
REMARK   37  A    between atoms: _89  and  _91
REMARK   38  A    between atoms: _91  and  _92
REMARK   39  A    between atoms: _91  and  _94
REMARK   40  A    between atoms: _94  and  _95
REMARK   41  A    between atoms: _95  and  _96
REMARK   42  A    between atoms: _96  and  _97
REMARK   43  A    between atoms: _106  and  _108
REMARK   44  A    between atoms: _108  and  _109
REMARK   45  A    between atoms: _108  and  _111
REMARK   46  A    between atoms: _111  and  _112
REMARK   47  A    between atoms: _112  and  _113
REMARK   48  A    between atoms: _116  and  _118
REMARK   49  A    between atoms: _118  and  _119
REMARK   50  A    between atoms: _122  and  _124
REMARK   51  A    between atoms: _124  and  _125
REMARK   52  A    between atoms: _124  and  _127
REMARK   53  A    between atoms: _127  and  _128
REMARK   54  A    between atoms: _131  and  _133
REMARK   55  A    between atoms: _133  and  _134
REMARK   56  A    between atoms: _136  and  _138
REMARK   57  A    between atoms: _138  and  _139
REMARK   58  A    between atoms: _142  and  _144
REMARK   59  A    between atoms: _144  and  _145
REMARK   60  A    between atoms: _144  and  _147
REMARK   61  A    between atoms: _147  and  _148
REMARK   62  A    between atoms: _148  and  _149
REMARK   63  A    between atoms: _149  and  _150
REMARK   64  A    between atoms: _159  and  _161
REMARK   65  A    between atoms: _161  and  _162
REMARK   66  A    between atoms: _161  and  _164
REMARK   67  A    between atoms: _164  and  _165
REMARK   68  A    between atoms: _168  and  _170
REMARK   69  A    between atoms: _170  and  _171
REMARK   70  A    between atoms: _170  and  _173
REMARK   71  A    between atoms: _173  and  _174
REMARK   72  A    between atoms: _177  and  _179
REMARK   73  A    between atoms: _179  and  _180
REMARK   74  A    between atoms: _179  and  _182
REMARK   75  A    between atoms: _182  and  _183
REMARK   76  A    between atoms: _183  and  _184
REMARK   77  A    between atoms: _184  and  _185
REMARK   78  A    between atoms: _185  and  _186
REMARK   79  A    between atoms: _190  and  _192
REMARK   80  A    between atoms: _192  and  _193
REMARK   81  A    between atoms: _192  and  _195
REMARK   82  A    between atoms: _195  and  _196
REMARK   83  A    between atoms: _201  and  _203
REMARK   84  A    between atoms: _203  and  _204
REMARK   85  A    between atoms: _206  and  _208
REMARK   86  A    between atoms: _208  and  _209
REMARK   87  A    between atoms: _208  and  _211
REMARK   88  A    between atoms: _211  and  _212
REMARK   89  A    between atoms: _215  and  _217
REMARK   90  A    between atoms: _217  and  _218
REMARK   91  A    between atoms: _217  and  _220
REMARK   92  A    between atoms: _220  and  _221
REMARK   93  A    between atoms: _224  and  _226
REMARK   94  A    between atoms: _226  and  _227
REMARK   95  A    between atoms: _226  and  _229
REMARK   96  A    between atoms: _229  and  _230
REMARK   97  A    between atoms: _233  and  _235
REMARK   98  A    between atoms: _235  and  _236
REMARK   99  A    between atoms: _235  and  _238
REMARK  100  A    between atoms: _238  and  _239
REMARK  101  A    between atoms: _239  and  _240
REMARK  102  A    between atoms: _240  and  _241
REMARK  103  A    between atoms: _250  and  _252
REMARK  104  A    between atoms: _252  and  _253
REMARK  105  A    between atoms: _255  and  _257
REMARK  106  A    between atoms: _257  and  _258
REMARK  107  A    between atoms: _257  and  _260
REMARK  108  A    between atoms: _260  and  _261
REMARK  109  A    between atoms: _264  and  _266
REMARK  110  A    between atoms: _266  and  _267
REMARK  111  A    between atoms: _266  and  _269
REMARK  112  A    between atoms: _269  and  _270
REMARK  113  A    between atoms: _272  and  _274
REMARK  114  A    between atoms: _274  and  _275
REMARK  115  A    between atoms: _274  and  _277
REMARK  116  A    between atoms: _277  and  _278
REMARK  117  A    between atoms: _282  and  MN_355
REMARK  118  A    between atoms: _283  and  _285
REMARK  119  A    between atoms: _285  and  _286
REMARK  120  A    between atoms: _289  and  _291
REMARK  121  A    between atoms: _291  and  _292
REMARK  122  A    between atoms: _291  and  _294
REMARK  123  A    between atoms: _294  and  _295
REMARK  124  A    between atoms: _300  and  _302
REMARK  125  A    between atoms: _302  and  _303
REMARK  126  A    between atoms: _302  and  _305
REMARK  127  A    between atoms: _305  and  _306
REMARK  128  A    between atoms: _306  and  _307
REMARK  129  A    between atoms: _309  and  _311
REMARK  130  A    between atoms: _311  and  _312
REMARK  131  A    between atoms: _311  and  _314
REMARK  132  A    between atoms: _314  and  _315
REMARK  133  A    between atoms: _315  and  _316
REMARK  134  A    between atoms: _316  and  _318
REMARK  135  A    between atoms: _318  and  MN_355
REMARK  136  A    between atoms: _319  and  _321
REMARK  137  A    between atoms: _321  and  _322
REMARK  138  A    between atoms: _321  and  _324
REMARK  139  A    between atoms: _324  and  _325
REMARK  140  A    between atoms: _327  and  _329
REMARK  141  A    between atoms: _329  and  _330
REMARK  142  A    between atoms: _329  and  _332
REMARK  143  A    between atoms: _332  and  _333
REMARK  144  A    between atoms: _336  and  _338
REMARK  145  A    between atoms: _338  and  _339
REMARK  146  A    between atoms: _338  and  _341
REMARK  147  A    between atoms: _341  and  _342
REMARK  148  A    between atoms: _342  and  _344
REMARK  149  A    between atoms: _344  and  MN_355
REMARK  150  A    between atoms: _345  and  _347
REMARK  151  A    between atoms: _347  and  _348
REMARK  152  A    between atoms: _347  and  _350
REMARK  153  A    between atoms: _350  and  _351
REMARK  154  A    between atoms: _351  and  _352
REMARK                            x       y       z     vdW  Elec       q    Type
REMARK                         _______ _______ _______ _____ _____    ______ ____
ROOT
ATOM      1  NE  ARG A   1      -0.287 -86.193  -2.485  0.00  0.00    -0.265 N 
ATOM      2  CZ  ARG A   1      -1.563 -86.145  -2.056  0.00  0.00    +0.342 C 
ATOM      3  NH2 ARG A   1      -2.021 -85.018  -1.556  0.00  0.00    -0.292 N 
ATOM      4 HH21 ARG A   1      -3.003 -84.960  -1.219  0.00  0.00    +0.255 HD
ATOM      5 HH22 ARG A   1      -1.401 -84.185  -1.498  0.00  0.00    +0.255 HD
ATOM      6  NH1 ARG A   1      -2.358 -87.212  -2.093  0.00  0.00    -0.292 N 
ATOM      7 HH11 ARG A   1      -3.339 -87.142  -1.754  0.00  0.00    +0.255 HD
ATOM      8 HH12 ARG A   1      -1.998 -88.116  -2.461  0.00  0.00    +0.255 HD
ATOM      9  HE  ARG A   1       0.296 -85.348  -2.320  0.00  0.00    +0.259 HD
ENDROOT
BRANCH   1  10
ATOM     10  CD  ARG A   1       0.359 -87.320  -3.161  0.00  0.00    +0.174 C 
BRANCH  10  11
ATOM     11  CG  ARG A   1       0.589 -87.031  -4.653  0.00  0.00    +0.045 C 
BRANCH  11  12
ATOM     12  CB  ARG A   1       1.329 -85.705  -4.899  0.00  0.00    +0.029 C 
BRANCH  12  13
ATOM     13  CA  ARG A   1       1.581 -85.358  -6.381  0.00  0.00    +0.133 C 
BRANCH  13  14
ATOM     14  N   ARG A   1       2.606 -86.193  -7.002  0.00  0.00    -0.239 NA
ATOM     15  H   ARG A   1       3.183 -86.799  -6.385  0.00  0.00    +0.142 HD
ENDBRANCH  13  14
BRANCH  13  16
ATOM     16  C   ARG A   1       2.048 -83.926  -6.437  0.00  0.00    +0.224 C 
ATOM     17  O   ARG A   1       3.067 -83.581  -5.830  0.00  0.00    -0.287 OA
ENDBRANCH  13  16
ENDBRANCH  12  13
ENDBRANCH  11  12
ENDBRANCH  10  11
ENDBRANCH   1  10
TORSDOF 6
REMARK  Name = ../refined-set-2016/4uma/4uma_pocket.pdb
REMARK  154 active torsions:
REMARK  status: ('A' for Active; 'I' for Inactive)
REMARK    1  A    between atoms: _1  and  _3
REMARK    2  A    between atoms: _3  and  _4
REMARK    3  A    between atoms: _7  and  _8
REMARK    4  A    between atoms: _13  and  _15
REMARK    5  A    between atoms: _15  and  _16
REMARK    6  A    between atoms: _15  and  _18
REMARK    7  A    between atoms: _18  and  _19
REMARK    8  A    between atoms: _19  and  MN_355
REMARK    9  A    between atoms: _20  and  _22
REMARK   10  A    between atoms: _22  and  _23
REMARK   11  A    between atoms: _22  and  _25
REMARK   12  A    between atoms: _25  and  _26
REMARK   13  A    between atoms: _28  and  _30
REMARK   14  A    between atoms: _30  and  _31
REMARK   15  A    between atoms: _30  and  _33
REMARK   16  A    between atoms: _33  and  _34
REMARK   17  A    between atoms: _34  and  _35
REMARK   18  A    between atoms: _35  and  _36
REMARK   19  A    between atoms: _45  and  _47
REMARK   20  A    between atoms: _47  and  _48
REMARK   21  A    between atoms: _47  and  _50
REMARK   22  A    between atoms: _50  and  _51
REMARK   23  A    between atoms: _56  and  _57
REMARK   24  A    between atoms: _59  and  _61
REMARK   25  A    between atoms: _61  and  _62
REMARK   26  A    between atoms: _61  and  _64
REMARK   27  A    between atoms: _64  and  _65
REMARK   28  A    between atoms: _65  and  _66
REMARK   29  A    between atoms: _69  and  _71
REMARK   30  A    between atoms: _71  and  _72
REMARK   31  A    between atoms: _71  and  _74
REMARK   32  A    between atoms: _74  and  _75
REMARK   33  A    between atoms: _75  and  _76
REMARK   34  A    between atoms: _76  and  _77
REMARK   35  A    between atoms: _77  and  _78
REMARK   36  A    between atoms: _83  and  _84
REMARK   37  A    between atoms: _89  and  _91
REMARK   38  A    between atoms: _91  and  _92
REMARK   39  A    between atoms: _91  and  _94
REMARK   40  A    between atoms: _94  and  _95
REMARK   41  A    between atoms: _95  and  _96
REMARK   42  A    between atoms: _96  and  _97
REMARK   43  A    between atoms: _106  and  _108
REMARK   44  A    between atoms: _108  and  _109
REMARK   45  A    between atoms: _108  and  _111
REMARK   46  A    between atoms: _111  and  _112
REMARK   47  A    between atoms: _112  and  _113
REMARK   48  A    between atoms: _116  and  _118
REMARK   49  A    between atoms: _118  and  _119
REMARK   50  A    between atoms: _122  and  _124
REMARK   51  A    between atoms: _124  and  _125
REMARK   52  A    between atoms: _124  and  _127
REMARK   53  A    between atoms: _127  and  _128
REMARK   54  A    between atoms: _131  and  _133
REMARK   55  A    between atoms: _133  and  _134
REMARK   56  A    between atoms: _136  and  _138
REMARK   57  A    between atoms: _138  and  _139
REMARK   58  A    between atoms: _142  and  _144
REMARK   59  A    between atoms: _144  and  _145
REMARK   60  A    between atoms: _144  and  _147
REMARK   61  A    between atoms: _147  and  _148
REMARK   62  A    between atoms: _148  and  _149
REMARK   63  A    between atoms: _149  and  _150
REMARK   64  A    between atoms: _159  and  _161
REMARK   65  A    between atoms: _161  and  _162
REMARK   66  A    between atoms: _161  and  _164
REMARK   67  A    between atoms: _164  and  _165
REMARK   68  A    between atoms: _168  and  _170
REMARK   69  A    between atoms: _170  and  _171
REMARK   70  A    between atoms: _170  and  _173
REMARK   71  A    between atoms: _173  and  _174
REMARK   72  A    between atoms: _177  and  _179
REMARK   73  A    between atoms: _179  and  _180
REMARK   74  A    between atoms: _179  and  _182
REMARK   75  A    between atoms: _182  and  _183
REMARK   76  A    between atoms: _183  and  _184
REMARK   77  A    between atoms: _184  and  _185
REMARK   78  A    between atoms: _185  and  _186
REMARK   79  A    between atoms: _190  and  _192
REMARK   80  A    between atoms: _192  and  _193
REMARK   81  A    between atoms: _192  and  _195
REMARK   82  A    between atoms: _195  and  _196
REMARK   83  A    between atoms: _201  and  _203
REMARK   84  A    between atoms: _203  and  _204
REMARK   85  A    between atoms: _206  and  _208
REMARK   86  A    between atoms: _208  and  _209
REMARK   87  A    between atoms: _208  and  _211
REMARK   88  A    between atoms: _211  and  _212
REMARK   89  A    between atoms: _215  and  _217
REMARK   90  A    between atoms: _217  and  _218
REMARK   91  A    between atoms: _217  and  _220
REMARK   92  A    between atoms: _220  and  _221
REMARK   93  A    between atoms: _224  and  _226
REMARK   94  A    between atoms: _226  and  _227
REMARK   95  A    between atoms: _226  and  _229
REMARK   96  A    between atoms: _229  and  _230
REMARK   97  A    between atoms: _233  and  _235
REMARK   98  A    between atoms: _235  and  _236
REMARK   99  A    between atoms: _235  and  _238
REMARK  100  A    between atoms: _238  and  _239
REMARK  101  A    between atoms: _239  and  _240
REMARK  102  A    between atoms: _240  and  _241
REMARK  103  A    between atoms: _250  and  _252
REMARK  104  A    between atoms: _252  and  _253
REMARK  105  A    between atoms: _255  and  _257
REMARK  106  A    between atoms: _257  and  _258
REMARK  107  A    between atoms: _257  and  _260
REMARK  108  A    between atoms: _260  and  _261
REMARK  109  A    between atoms: _264  and  _266
REMARK  110  A    between atoms: _266  and  _267
REMARK  111  A    between atoms: _266  and  _269
REMARK  112  A    between atoms: _269  and  _270
REMARK  113  A    between atoms: _272  and  _274
REMARK  114  A    between atoms: _274  and  _275
REMARK  115  A    between atoms: _274  and  _277
REMARK  116  A    between atoms: _277  and  _278
REMARK  117  A    between atoms: _282  and  MN_355
REMARK  118  A    between atoms: _283  and  _285
REMARK  119  A    between atoms: _285  and  _286
REMARK  120  A    between atoms: _289  and  _291
REMARK  121  A    between atoms: _291  and  _292
REMARK  122  A    between atoms: _291  and  _294
REMARK  123  A    between atoms: _294  and  _295
REMARK  124  A    between atoms: _300  and  _302
REMARK  125  A    between atoms: _302  and  _303
REMARK  126  A    between atoms: _302  and  _305
REMARK  127  A    between atoms: _305  and  _306
REMARK  128  A    between atoms: _306  and  _307
REMARK  129  A    between atoms: _309  and  _311
REMARK  130  A    between atoms: _311  and  _312
REMARK  131  A    between atoms: _311  and  _314
REMARK  132  A    between atoms: _314  and  _315
REMARK  133  A    between atoms: _315  and  _316
REMARK  134  A    between atoms: _316  and  _318
REMARK  135  A    between atoms: _318  and  MN_355
REMARK  136  A    between atoms: _319  and  _321
REMARK  137  A    between atoms: _321  and  _322
REMARK  138  A    between atoms: _321  and  _324
REMARK  139  A    between atoms: _324  and  _325
REMARK  140  A    between atoms: _327  and  _329
REMARK  141  A    between atoms: _329  and  _330
REMARK  142  A    between atoms: _329  and  _332
REMARK  143  A    between atoms: _332  and  _333
REMARK  144  A    between atoms: _336  and  _338
REMARK  145  A    between atoms: _338  and  _339
REMARK  146  A    between atoms: _338  and  _341
REMARK  147  A    between atoms: _341  and  _342
REMARK  148  A    between atoms: _342  and  _344
REMARK  149  A    between atoms: _344  and  MN_355
REMARK  150  A    between atoms: _345  and  _347
REMARK  151  A    between atoms: _347  and  _348
REMARK  152  A    between atoms: _347  and  _350
REMARK  153  A    between atoms: _350  and  _351
REMARK  154  A    between atoms: _351  and  _352
REMARK                            x       y       z     vdW  Elec       q    Type
REMARK                         _______ _______ _______ _____ _____    ______ ____
ROOT
ATOM      1  CG  TYR A   1      -2.620 -82.635  -4.256  0.00  0.00    -0.020 A 
ATOM      2  CD2 TYR A   1      -3.855 -82.971  -3.657  0.00  0.00    -0.001 A 
ATOM      3  CE2 TYR A   1      -4.428 -84.213  -3.857  0.00  0.00    +0.036 A 
ATOM      4  CZ  TYR A   1      -3.815 -85.137  -4.664  0.00  0.00    +0.134 A 
ATOM      5  CE1 TYR A   1      -2.630 -84.821  -5.330  0.00  0.00    +0.036 A 
ATOM      6  CD1 TYR A   1      -2.040 -83.578  -5.098  0.00  0.00    -0.001 A 
ENDROOT
BRANCH   4   7
ATOM      7  OH  TYR A   1      -4.389 -86.374  -4.887  0.00  0.00    -0.506 OA
ATOM      8  HH  TYR A   1      -4.491 -86.850  -4.025  0.00  0.00    +0.292 HD
ENDBRANCH   4   7
BRANCH   1   9
ATOM      9  CB  TYR A   1      -1.968 -81.290  -3.995  0.00  0.00    +0.051 C 
BRANCH   9  10
ATOM     10  CA  TYR A   1      -1.511 -80.502  -5.204  0.00  0.00    +0.137 C 
BRANCH  10  11
ATOM     11  N   TYR A   1      -0.180 -80.962  -5.663  0.00  0.00    -0.239 NA
ATOM     12  H   TYR A   1       0.489 -81.313  -4.948  0.00  0.00    +0.142 HD
ENDBRANCH  10  11
BRANCH  10  13
ATOM     13  C   TYR A   1      -1.446 -79.027  -4.851  0.00  0.00    +0.224 C 
ATOM     14  O   TYR A   1      -0.667 -78.601  -3.957  0.00  0.00    -0.287 OA
ENDBRANCH  10  13
ENDBRANCH   9  10
ENDBRANCH   1   9
TORSDOF 5
REMARK  Name = ../refined-set-2016/4uma/4uma_pocket.pdb
REMARK  154 active torsions:
REMARK  status: ('A' for Active; 'I' for Inactive)
REMARK    1  A    between atoms: _1  and  _3
REMARK    2  A    between atoms: _3  and  _4
REMARK    3  A    between atoms: _7  and  _8
REMARK    4  A    between atoms: _13  and  _15
REMARK    5  A    between atoms: _15  and  _16
REMARK    6  A    between atoms: _15  and  _18
REMARK    7  A    between atoms: _18  and  _19
REMARK    8  A    between atoms: _19  and  MN_355
REMARK    9  A    between atoms: _20  and  _22
REMARK   10  A    between atoms: _22  and  _23
REMARK   11  A    between atoms: _22  and  _25
REMARK   12  A    between atoms: _25  and  _26
REMARK   13  A    between atoms: _28  and  _30
REMARK   14  A    between atoms: _30  and  _31
REMARK   15  A    between atoms: _30  and  _33
REMARK   16  A    between atoms: _33  and  _34
REMARK   17  A    between atoms: _34  and  _35
REMARK   18  A    between atoms: _35  and  _36
REMARK   19  A    between atoms: _45  and  _47
REMARK   20  A    between atoms: _47  and  _48
REMARK   21  A    between atoms: _47  and  _50
REMARK   22  A    between atoms: _50  and  _51
REMARK   23  A    between atoms: _56  and  _57
REMARK   24  A    between atoms: _59  and  _61
REMARK   25  A    between atoms: _61  and  _62
REMARK   26  A    between atoms: _61  and  _64
REMARK   27  A    between atoms: _64  and  _65
REMARK   28  A    between atoms: _65  and  _66
REMARK   29  A    between atoms: _69  and  _71
REMARK   30  A    between atoms: _71  and  _72
REMARK   31  A    between atoms: _71  and  _74
REMARK   32  A    between atoms: _74  and  _75
REMARK   33  A    between atoms: _75  and  _76
REMARK   34  A    between atoms: _76  and  _77
REMARK   35  A    between atoms: _77  and  _78
REMARK   36  A    between atoms: _83  and  _84
REMARK   37  A    between atoms: _89  and  _91
REMARK   38  A    between atoms: _91  and  _92
REMARK   39  A    between atoms: _91  and  _94
REMARK   40  A    between atoms: _94  and  _95
REMARK   41  A    between atoms: _95  and  _96
REMARK   42  A    between atoms: _96  and  _97
REMARK   43  A    between atoms: _106  and  _108
REMARK   44  A    between atoms: _108  and  _109
REMARK   45  A    between atoms: _108  and  _111
REMARK   46  A    between atoms: _111  and  _112
REMARK   47  A    between atoms: _112  and  _113
REMARK   48  A    between atoms: _116  and  _118
REMARK   49  A    between atoms: _118  and  _119
REMARK   50  A    between atoms: _122  and  _124
REMARK   51  A    between atoms: _124  and  _125
REMARK   52  A    between atoms: _124  and  _127
REMARK   53  A    between atoms: _127  and  _128
REMARK   54  A    between atoms: _131  and  _133
REMARK   55  A    between atoms: _133  and  _134
REMARK   56  A    between atoms: _136  and  _138
REMARK   57  A    between atoms: _138  and  _139
REMARK   58  A    between atoms: _142  and  _144
REMARK   59  A    between atoms: _144  and  _145
REMARK   60  A    between atoms: _144  and  _147
REMARK   61  A    between atoms: _147  and  _148
REMARK   62  A    between atoms: _148  and  _149
REMARK   63  A    between atoms: _149  and  _150
REMARK   64  A    between atoms: _159  and  _161
REMARK   65  A    between atoms: _161  and  _162
REMARK   66  A    between atoms: _161  and  _164
REMARK   67  A    between atoms: _164  and  _165
REMARK   68  A    between atoms: _168  and  _170
REMARK   69  A    between atoms: _170  and  _171
REMARK   70  A    between atoms: _170  and  _173
REMARK   71  A    between atoms: _173  and  _174
REMARK   72  A    between atoms: _177  and  _179
REMARK   73  A    between atoms: _179  and  _180
REMARK   74  A    between atoms: _179  and  _182
REMARK   75  A    between atoms: _182  and  _183
REMARK   76  A    between atoms: _183  and  _184
REMARK   77  A    between atoms: _184  and  _185
REMARK   78  A    between atoms: _185  and  _186
REMARK   79  A    between atoms: _190  and  _192
REMARK   80  A    between atoms: _192  and  _193
REMARK   81  A    between atoms: _192  and  _195
REMARK   82  A    between atoms: _195  and  _196
REMARK   83  A    between atoms: _201  and  _203
REMARK   84  A    between atoms: _203  and  _204
REMARK   85  A    between atoms: _206  and  _208
REMARK   86  A    between atoms: _208  and  _209
REMARK   87  A    between atoms: _208  and  _211
REMARK   88  A    between atoms: _211  and  _212
REMARK   89  A    between atoms: _215  and  _217
REMARK   90  A    between atoms: _217  and  _218
REMARK   91  A    between atoms: _217  and  _220
REMARK   92  A    between atoms: _220  and  _221
REMARK   93  A    between atoms: _224  and  _226
REMARK   94  A    between atoms: _226  and  _227
REMARK   95  A    between atoms: _226  and  _229
REMARK   96  A    between atoms: _229  and  _230
REMARK   97  A    between atoms: _233  and  _235
REMARK   98  A    between atoms: _235  and  _236
REMARK   99  A    between atoms: _235  and  _238
REMARK  100  A    between atoms: _238  and  _239
REMARK  101  A    between atoms: _239  and  _240
REMARK  102  A    between atoms: _240  and  _241
REMARK  103  A    between atoms: _250  and  _252
REMARK  104  A    between atoms: _252  and  _253
REMARK  105  A    between atoms: _255  and  _257
REMARK  106  A    between atoms: _257  and  _258
REMARK  107  A    between atoms: _257  and  _260
REMARK  108  A    between atoms: _260  and  _261
REMARK  109  A    between atoms: _264  and  _266
REMARK  110  A    between atoms: _266  and  _267
REMARK  111  A    between atoms: _266  and  _269
REMARK  112  A    between atoms: _269  and  _270
REMARK  113  A    between atoms: _272  and  _274
REMARK  114  A    between atoms: _274  and  _275
REMARK  115  A    between atoms: _274  and  _277
REMARK  116  A    between atoms: _277  and  _278
REMARK  117  A    between atoms: _282  and  MN_355
REMARK  118  A    between atoms: _283  and  _285
REMARK  119  A    between atoms: _285  and  _286
REMARK  120  A    between atoms: _289  and  _291
REMARK  121  A    between atoms: _291  and  _292
REMARK  122  A    between atoms: _291  and  _294
REMARK  123  A    between atoms: _294  and  _295
REMARK  124  A    between atoms: _300  and  _302
REMARK  125  A    between atoms: _302  and  _303
REMARK  126  A    between atoms: _302  and  _305
REMARK  127  A    between atoms: _305  and  _306
REMARK  128  A    between atoms: _306  and  _307
REMARK  129  A    between atoms: _309  and  _311
REMARK  130  A    between atoms: _311  and  _312
REMARK  131  A    between atoms: _311  and  _314
REMARK  132  A    between atoms: _314  and  _315
REMARK  133  A    between atoms: _315  and  _316
REMARK  134  A    between atoms: _316  and  _318
REMARK  135  A    between atoms: _318  and  MN_355
REMARK  136  A    between atoms: _319  and  _321
REMARK  137  A    between atoms: _321  and  _322
REMARK  138  A    between atoms: _321  and  _324
REMARK  139  A    between atoms: _324  and  _325
REMARK  140  A    between atoms: _327  and  _329
REMARK  141  A    between atoms: _329  and  _330
REMARK  142  A    between atoms: _329  and  _332
REMARK  143  A    between atoms: _332  and  _333
REMARK  144  A    between atoms: _336  and  _338
REMARK  145  A    between atoms: _338  and  _339
REMARK  146  A    between atoms: _338  and  _341
REMARK  147  A    between atoms: _341  and  _342
REMARK  148  A    between atoms: _342  and  _344
REMARK  149  A    between atoms: _344  and  MN_355
REMARK  150  A    between atoms: _345  and  _347
REMARK  151  A    between atoms: _347  and  _348
REMARK  152  A    between atoms: _347  and  _350
REMARK  153  A    between atoms: _350  and  _351
REMARK  154  A    between atoms: _351  and  _352
REMARK                            x       y       z     vdW  Elec       q    Type
REMARK                         _______ _______ _______ _____ _____    ______ ____
ROOT
ATOM      1  C   LYS A   2      -7.895 -77.800   0.349  0.00  0.00    +0.244 C 
ATOM      2  O   LYS A   2      -8.176 -76.663   0.716  0.00  0.00    -0.273 OA
ATOM      3  N   PRO A   3      -8.690 -78.838   0.543  0.00  0.00    -0.272 N 
ATOM      4  CA  PRO A   3      -9.957 -78.701   1.258  0.00  0.00    +0.152 C 
ATOM      5  CB  PRO A   3     -10.739 -79.918   0.807  0.00  0.00    +0.031 C 
ATOM      6  CG  PRO A   3      -9.670 -80.987   0.543  0.00  0.00    +0.024 C 
ATOM      7  CD  PRO A   3      -8.460 -80.231   0.075  0.00  0.00    +0.094 C 
ENDROOT
BRANCH   4   8
ATOM      8  C   PRO A   3      -9.719 -78.724   2.778  0.00  0.00    +0.241 C 
ATOM      9  N   ARG A   4     -10.198 -77.722   3.489  0.00  0.00    -0.298 N 
ATOM     10  H   ARG A   4     -10.679 -76.943   2.996  0.00  0.00    +0.150 HD
ATOM     11  O   PRO A   3      -9.081 -79.646   3.282  0.00  0.00    -0.273 OA
BRANCH   9  12
ATOM     12  CA  ARG A   4     -10.078 -77.666   4.951  0.00  0.00    +0.137 C 
BRANCH  12  13
ATOM     13  C   ARG A   4     -11.349 -78.126   5.643  0.00  0.00    +0.227 C 
ATOM     14  O   ARG A   4     -12.452 -78.043   5.082  0.00  0.00    -0.286 OA
ENDBRANCH  12  13
BRANCH  12  15
ATOM     15  CB  ARG A   4      -9.738 -76.260   5.399  0.00  0.00    +0.031 C 
BRANCH  15  16
ATOM     16  CG  ARG A   4      -8.549 -75.613   4.677  0.00  0.00    +0.045 C 
BRANCH  16  17
ATOM     17  CD  ARG A   4      -7.316 -76.497   4.597  0.00  0.00    +0.174 C 
BRANCH  17  18
ATOM     18  NE  ARG A   4      -6.789 -76.817   5.919  0.00  0.00    -0.265 N 
ATOM     19  HE  ARG A   4      -7.464 -77.151   6.636  0.00  0.00    +0.259 HD
ATOM     20  CZ  ARG A   4      -5.509 -76.715   6.281  0.00  0.00    +0.342 C 
ATOM     21  NH2 ARG A   4      -5.174 -77.030   7.522  0.00  0.00    -0.292 N 
ATOM     22 HH21 ARG A   4      -5.902 -77.349   8.192  0.00  0.00    +0.255 HD
ATOM     23 HH22 ARG A   4      -4.182 -76.958   7.827  0.00  0.00    +0.255 HD
ATOM     24  NH1 ARG A   4      -4.554 -76.261   5.450  0.00  0.00    -0.292 N 
ATOM     25 HH11 ARG A   4      -3.568 -76.198   5.775  0.00  0.00    +0.255 HD
ATOM     26 HH12 ARG A   4      -4.801 -75.972   4.482  0.00  0.00    +0.255 HD
ENDBRANCH  17  18
ENDBRANCH  16  17
ENDBRANCH  15  16
ENDBRANCH  12  15
ENDBRANCH   9  12
ENDBRANCH   4   8
BRANCH   1  27
ATOM     27  CA  LYS A   2      -6.524 -78.087  -0.302  0.00  0.00    +0.149 C 
BRANCH  27  29
ATOM     28  C   GLU A   1      -6.074 -77.798  -2.662  0.00  0.00    +0.238 C 
ATOM     29  N   LYS A   2      -6.305 -77.287  -1.475  0.00  0.00    -0.297 N 
ATOM     30  H   LYS A   2      -6.331 -76.252  -1.379  0.00  0.00    +0.150 HD
ATOM     31  O   GLU A   1      -6.160 -78.987  -2.933  0.00  0.00    -0.274 OA
BRANCH  28  32
ATOM     32  CA  GLU A   1      -5.728 -76.786  -3.771  0.00  0.00    +0.145 C 
BRANCH  32  33
ATOM     33  N   GLU A   1      -4.466 -77.137  -4.388  0.00  0.00    -0.238 NA
ATOM     34  H   GLU A   1      -4.322 -78.126  -4.676  0.00  0.00    +0.142 HD
ENDBRANCH  32  33
BRANCH  32  35
ATOM     35  CB  GLU A   1      -6.824 -76.800  -4.812  0.00  0.00    +0.038 C 
BRANCH  35  36
ATOM     36  CG  GLU A   1      -6.442 -75.958  -6.009  0.00  0.00    +0.116 C 
BRANCH  36  37
ATOM     37  CD  GLU A   1      -7.445 -75.910  -7.132  0.00  0.00    +0.365 C 
ATOM     38  OE2 GLU A   1      -8.337 -76.781  -7.253  0.00  0.00    -0.246 OA
ATOM     39  OE1 GLU A   1      -7.272 -75.010  -7.980  0.00  0.00    -0.246 OA
ENDBRANCH  36  37
ENDBRANCH  35  36
ENDBRANCH  32  35
ENDBRANCH  28  32
ENDBRANCH  27  29
BRANCH  27  40
ATOM     40  CB  LYS A   2      -5.458 -77.832   0.735  0.00  0.00    +0.029 C 
BRANCH  40  41
ATOM     41  CG  LYS A   2      -4.014 -78.016   0.251  0.00  0.00    +0.000 C 
BRANCH  41  42
ATOM     42  CD  LYS A   2      -3.748 -79.363  -0.434  0.00  0.00    -0.024 C 
BRANCH  42  43
ATOM     43  CE  LYS A   2      -3.871 -80.559   0.520  0.00  0.00    -0.086 C 
BRANCH  43  44
ATOM     44  NZ  LYS A   2      -3.813 -81.880  -0.175  0.00  0.00    +0.380 N 
ATOM     45  HZ1 LYS A   2      -3.902 -82.643   0.526  0.00  0.00    -0.089 HD
ATOM     46  HZ2 LYS A   2      -2.904 -81.969  -0.673  0.00  0.00    -0.089 HD
ATOM     47  HZ3 LYS A   2      -4.593 -81.944  -0.860  0.00  0.00    -0.089 HD
ENDBRANCH  43  44
ENDBRANCH  42  43
ENDBRANCH  41  42
ENDBRANCH  40  41
ENDBRANCH  27  40
ENDBRANCH   1  27
TORSDOF 19
REMARK  Name = ../refined-set-2016/4uma/4uma_pocket.pdb
REMARK  154 active torsions:
REMARK  status: ('A' for Active; 'I' for Inactive)
REMARK    1  A    between atoms: _1  and  _3
REMARK    2  A    between atoms: _3  and  _4
REMARK    3  A    between atoms: _7  and  _8
REMARK    4  A    between atoms: _13  and  _15
REMARK    5  A    between atoms: _15  and  _16
REMARK    6  A    between atoms: _15  and  _18
REMARK    7  A    between atoms: _18  and  _19
REMARK    8  A    between atoms: _19  and  MN_355
REMARK    9  A    between atoms: _20  and  _22
REMARK   10  A    between atoms: _22  and  _23
REMARK   11  A    between atoms: _22  and  _25
REMARK   12  A    between atoms: _25  and  _26
REMARK   13  A    between atoms: _28  and  _30
REMARK   14  A    between atoms: _30  and  _31
REMARK   15  A    between atoms: _30  and  _33
REMARK   16  A    between atoms: _33  and  _34
REMARK   17  A    between atoms: _34  and  _35
REMARK   18  A    between atoms: _35  and  _36
REMARK   19  A    between atoms: _45  and  _47
REMARK   20  A    between atoms: _47  and  _48
REMARK   21  A    between atoms: _47  and  _50
REMARK   22  A    between atoms: _50  and  _51
REMARK   23  A    between atoms: _56  and  _57
REMARK   24  A    between atoms: _59  and  _61
REMARK   25  A    between atoms: _61  and  _62
REMARK   26  A    between atoms: _61  and  _64
REMARK   27  A    between atoms: _64  and  _65
REMARK   28  A    between atoms: _65  and  _66
REMARK   29  A    between atoms: _69  and  _71
REMARK   30  A    between atoms: _71  and  _72
REMARK   31  A    between atoms: _71  and  _74
REMARK   32  A    between atoms: _74  and  _75
REMARK   33  A    between atoms: _75  and  _76
REMARK   34  A    between atoms: _76  and  _77
REMARK   35  A    between atoms: _77  and  _78
REMARK   36  A    between atoms: _83  and  _84
REMARK   37  A    between atoms: _89  and  _91
REMARK   38  A    between atoms: _91  and  _92
REMARK   39  A    between atoms: _91  and  _94
REMARK   40  A    between atoms: _94  and  _95
REMARK   41  A    between atoms: _95  and  _96
REMARK   42  A    between atoms: _96  and  _97
REMARK   43  A    between atoms: _106  and  _108
REMARK   44  A    between atoms: _108  and  _109
REMARK   45  A    between atoms: _108  and  _111
REMARK   46  A    between atoms: _111  and  _112
REMARK   47  A    between atoms: _112  and  _113
REMARK   48  A    between atoms: _116  and  _118
REMARK   49  A    between atoms: _118  and  _119
REMARK   50  A    between atoms: _122  and  _124
REMARK   51  A    between atoms: _124  and  _125
REMARK   52  A    between atoms: _124  and  _127
REMARK   53  A    between atoms: _127  and  _128
REMARK   54  A    between atoms: _131  and  _133
REMARK   55  A    between atoms: _133  and  _134
REMARK   56  A    between atoms: _136  and  _138
REMARK   57  A    between atoms: _138  and  _139
REMARK   58  A    between atoms: _142  and  _144
REMARK   59  A    between atoms: _144  and  _145
REMARK   60  A    between atoms: _144  and  _147
REMARK   61  A    between atoms: _147  and  _148
REMARK   62  A    between atoms: _148  and  _149
REMARK   63  A    between atoms: _149  and  _150
REMARK   64  A    between atoms: _159  and  _161
REMARK   65  A    between atoms: _161  and  _162
REMARK   66  A    between atoms: _161  and  _164
REMARK   67  A    between atoms: _164  and  _165
REMARK   68  A    between atoms: _168  and  _170
REMARK   69  A    between atoms: _170  and  _171
REMARK   70  A    between atoms: _170  and  _173
REMARK   71  A    between atoms: _173  and  _174
REMARK   72  A    between atoms: _177  and  _179
REMARK   73  A    between atoms: _179  and  _180
REMARK   74  A    between atoms: _179  and  _182
REMARK   75  A    between atoms: _182  and  _183
REMARK   76  A    between atoms: _183  and  _184
REMARK   77  A    between atoms: _184  and  _185
REMARK   78  A    between atoms: _185  and  _186
REMARK   79  A    between atoms: _190  and  _192
REMARK   80  A    between atoms: _192  and  _193
REMARK   81  A    between atoms: _192  and  _195
REMARK   82  A    between atoms: _195  and  _196
REMARK   83  A    between atoms: _201  and  _203
REMARK   84  A    between atoms: _203  and  _204
REMARK   85  A    between atoms: _206  and  _208
REMARK   86  A    between atoms: _208  and  _209
REMARK   87  A    between atoms: _208  and  _211
REMARK   88  A    between atoms: _211  and  _212
REMARK   89  A    between atoms: _215  and  _217
REMARK   90  A    between atoms: _217  and  _218
REMARK   91  A    between atoms: _217  and  _220
REMARK   92  A    between atoms: _220  and  _221
REMARK   93  A    between atoms: _224  and  _226
REMARK   94  A    between atoms: _226  and  _227
REMARK   95  A    between atoms: _226  and  _229
REMARK   96  A    between atoms: _229  and  _230
REMARK   97  A    between atoms: _233  and  _235
REMARK   98  A    between atoms: _235  and  _236
REMARK   99  A    between atoms: _235  and  _238
REMARK  100  A    between atoms: _238  and  _239
REMARK  101  A    between atoms: _239  and  _240
REMARK  102  A    between atoms: _240  and  _241
REMARK  103  A    between atoms: _250  and  _252
REMARK  104  A    between atoms: _252  and  _253
REMARK  105  A    between atoms: _255  and  _257
REMARK  106  A    between atoms: _257  and  _258
REMARK  107  A    between atoms: _257  and  _260
REMARK  108  A    between atoms: _260  and  _261
REMARK  109  A    between atoms: _264  and  _266
REMARK  110  A    between atoms: _266  and  _267
REMARK  111  A    between atoms: _266  and  _269
REMARK  112  A    between atoms: _269  and  _270
REMARK  113  A    between atoms: _272  and  _274
REMARK  114  A    between atoms: _274  and  _275
REMARK  115  A    between atoms: _274  and  _277
REMARK  116  A    between atoms: _277  and  _278
REMARK  117  A    between atoms: _282  and  MN_355
REMARK  118  A    between atoms: _283  and  _285
REMARK  119  A    between atoms: _285  and  _286
REMARK  120  A    between atoms: _289  and  _291
REMARK  121  A    between atoms: _291  and  _292
REMARK  122  A    between atoms: _291  and  _294
REMARK  123  A    between atoms: _294  and  _295
REMARK  124  A    between atoms: _300  and  _302
REMARK  125  A    between atoms: _302  and  _303
REMARK  126  A    between atoms: _302  and  _305
REMARK  127  A    between atoms: _305  and  _306
REMARK  128  A    between atoms: _306  and  _307
REMARK  129  A    between atoms: _309  and  _311
REMARK  130  A    between atoms: _311  and  _312
REMARK  131  A    between atoms: _311  and  _314
REMARK  132  A    between atoms: _314  and  _315
REMARK  133  A    between atoms: _315  and  _316
REMARK  134  A    between atoms: _316  and  _318
REMARK  135  A    between atoms: _318  and  MN_355
REMARK  136  A    between atoms: _319  and  _321
REMARK  137  A    between atoms: _321  and  _322
REMARK  138  A    between atoms: _321  and  _324
REMARK  139  A    between atoms: _324  and  _325
REMARK  140  A    between atoms: _327  and  _329
REMARK  141  A    between atoms: _329  and  _330
REMARK  142  A    between atoms: _329  and  _332
REMARK  143  A    between atoms: _332  and  _333
REMARK  144  A    between atoms: _336  and  _338
REMARK  145  A    between atoms: _338  and  _339
REMARK  146  A    between atoms: _338  and  _341
REMARK  147  A    between atoms: _341  and  _342
REMARK  148  A    between atoms: _342  and  _344
REMARK  149  A    between atoms: _344  and  MN_355
REMARK  150  A    between atoms: _345  and  _347
REMARK  151  A    between atoms: _347  and  _348
REMARK  152  A    between atoms: _347  and  _350
REMARK  153  A    between atoms: _350  and  _351
REMARK  154  A    between atoms: _351  and  _352
REMARK                            x       y       z     vdW  Elec       q    Type
REMARK                         _______ _______ _______ _____ _____    ______ ____
ROOT
ATOM      1  CA  GLU A   1      -6.793 -82.567  -6.770  0.00  0.00    +0.134 C 
ENDROOT
BRANCH   1   2
ATOM      2  N   GLU A   1      -5.368 -82.534  -7.070  0.00  0.00    -0.239 NA
ATOM      3  H   GLU A   1      -4.713 -82.087  -6.397  0.00  0.00    +0.142 HD
ENDBRANCH   1   2
BRANCH   1   4
ATOM      4  C   GLU A   1      -7.401 -81.354  -7.440  0.00  0.00    +0.224 C 
ATOM      5  O   GLU A   1      -6.959 -80.209  -7.206  0.00  0.00    -0.287 OA
ENDBRANCH   1   4
BRANCH   1   6
ATOM      6  CB  GLU A   1      -7.124 -82.552  -5.262  0.00  0.00    +0.037 C 
BRANCH   6   7
ATOM      7  CG  GLU A   1      -8.630 -82.332  -5.027  0.00  0.00    +0.116 C 
BRANCH   7   8
ATOM      8  CD  GLU A   1      -9.113 -82.301  -3.590  0.00  0.00    +0.365 C 
ATOM      9  OE2 GLU A   1      -8.364 -82.694  -2.641  0.00  0.00    -0.246 OA
ATOM     10  OE1 GLU A   1     -10.305 -81.909  -3.427  0.00  0.00    -0.246 OA
ENDBRANCH   7   8
ENDBRANCH   6   7
ENDBRANCH   1   6
TORSDOF 5
REMARK  Name = ../refined-set-2016/4uma/4uma_pocket.pdb
REMARK  154 active torsions:
REMARK  status: ('A' for Active; 'I' for Inactive)
REMARK    1  A    between atoms: _1  and  _3
REMARK    2  A    between atoms: _3  and  _4
REMARK    3  A    between atoms: _7  and  _8
REMARK    4  A    between atoms: _13  and  _15
REMARK    5  A    between atoms: _15  and  _16
REMARK    6  A    between atoms: _15  and  _18
REMARK    7  A    between atoms: _18  and  _19
REMARK    8  A    between atoms: _19  and  MN_355
REMARK    9  A    between atoms: _20  and  _22
REMARK   10  A    between atoms: _22  and  _23
REMARK   11  A    between atoms: _22  and  _25
REMARK   12  A    between atoms: _25  and  _26
REMARK   13  A    between atoms: _28  and  _30
REMARK   14  A    between atoms: _30  and  _31
REMARK   15  A    between atoms: _30  and  _33
REMARK   16  A    between atoms: _33  and  _34
REMARK   17  A    between atoms: _34  and  _35
REMARK   18  A    between atoms: _35  and  _36
REMARK   19  A    between atoms: _45  and  _47
REMARK   20  A    between atoms: _47  and  _48
REMARK   21  A    between atoms: _47  and  _50
REMARK   22  A    between atoms: _50  and  _51
REMARK   23  A    between atoms: _56  and  _57
REMARK   24  A    between atoms: _59  and  _61
REMARK   25  A    between atoms: _61  and  _62
REMARK   26  A    between atoms: _61  and  _64
REMARK   27  A    between atoms: _64  and  _65
REMARK   28  A    between atoms: _65  and  _66
REMARK   29  A    between atoms: _69  and  _71
REMARK   30  A    between atoms: _71  and  _72
REMARK   31  A    between atoms: _71  and  _74
REMARK   32  A    between atoms: _74  and  _75
REMARK   33  A    between atoms: _75  and  _76
REMARK   34  A    between atoms: _76  and  _77
REMARK   35  A    between atoms: _77  and  _78
REMARK   36  A    between atoms: _83  and  _84
REMARK   37  A    between atoms: _89  and  _91
REMARK   38  A    between atoms: _91  and  _92
REMARK   39  A    between atoms: _91  and  _94
REMARK   40  A    between atoms: _94  and  _95
REMARK   41  A    between atoms: _95  and  _96
REMARK   42  A    between atoms: _96  and  _97
REMARK   43  A    between atoms: _106  and  _108
REMARK   44  A    between atoms: _108  and  _109
REMARK   45  A    between atoms: _108  and  _111
REMARK   46  A    between atoms: _111  and  _112
REMARK   47  A    between atoms: _112  and  _113
REMARK   48  A    between atoms: _116  and  _118
REMARK   49  A    between atoms: _118  and  _119
REMARK   50  A    between atoms: _122  and  _124
REMARK   51  A    between atoms: _124  and  _125
REMARK   52  A    between atoms: _124  and  _127
REMARK   53  A    between atoms: _127  and  _128
REMARK   54  A    between atoms: _131  and  _133
REMARK   55  A    between atoms: _133  and  _134
REMARK   56  A    between atoms: _136  and  _138
REMARK   57  A    between atoms: _138  and  _139
REMARK   58  A    between atoms: _142  and  _144
REMARK   59  A    between atoms: _144  and  _145
REMARK   60  A    between atoms: _144  and  _147
REMARK   61  A    between atoms: _147  and  _148
REMARK   62  A    between atoms: _148  and  _149
REMARK   63  A    between atoms: _149  and  _150
REMARK   64  A    between atoms: _159  and  _161
REMARK   65  A    between atoms: _161  and  _162
REMARK   66  A    between atoms: _161  and  _164
REMARK   67  A    between atoms: _164  and  _165
REMARK   68  A    between atoms: _168  and  _170
REMARK   69  A    between atoms: _170  and  _171
REMARK   70  A    between atoms: _170  and  _173
REMARK   71  A    between atoms: _173  and  _174
REMARK   72  A    between atoms: _177  and  _179
REMARK   73  A    between atoms: _179  and  _180
REMARK   74  A    between atoms: _179  and  _182
REMARK   75  A    between atoms: _182  and  _183
REMARK   76  A    between atoms: _183  and  _184
REMARK   77  A    between atoms: _184  and  _185
REMARK   78  A    between atoms: _185  and  _186
REMARK   79  A    between atoms: _190  and  _192
REMARK   80  A    between atoms: _192  and  _193
REMARK   81  A    between atoms: _192  and  _195
REMARK   82  A    between atoms: _195  and  _196
REMARK   83  A    between atoms: _201  and  _203
REMARK   84  A    between atoms: _203  and  _204
REMARK   85  A    between atoms: _206  and  _208
REMARK   86  A    between atoms: _208  and  _209
REMARK   87  A    between atoms: _208  and  _211
REMARK   88  A    between atoms: _211  and  _212
REMARK   89  A    between atoms: _215  and  _217
REMARK   90  A    between atoms: _217  and  _218
REMARK   91  A    between atoms: _217  and  _220
REMARK   92  A    between atoms: _220  and  _221
REMARK   93  A    between atoms: _224  and  _226
REMARK   94  A    between atoms: _226  and  _227
REMARK   95  A    between atoms: _226  and  _229
REMARK   96  A    between atoms: _229  and  _230
REMARK   97  A    between atoms: _233  and  _235
REMARK   98  A    between atoms: _235  and  _236
REMARK   99  A    between atoms: _235  and  _238
REMARK  100  A    between atoms: _238  and  _239
REMARK  101  A    between atoms: _239  and  _240
REMARK  102  A    between atoms: _240  and  _241
REMARK  103  A    between atoms: _250  and  _252
REMARK  104  A    between atoms: _252  and  _253
REMARK  105  A    between atoms: _255  and  _257
REMARK  106  A    between atoms: _257  and  _258
REMARK  107  A    between atoms: _257  and  _260
REMARK  108  A    between atoms: _260  and  _261
REMARK  109  A    between atoms: _264  and  _266
REMARK  110  A    between atoms: _266  and  _267
REMARK  111  A    between atoms: _266  and  _269
REMARK  112  A    between atoms: _269  and  _270
REMARK  113  A    between atoms: _272  and  _274
REMARK  114  A    between atoms: _274  and  _275
REMARK  115  A    between atoms: _274  and  _277
REMARK  116  A    between atoms: _277  and  _278
REMARK  117  A    between atoms: _282  and  MN_355
REMARK  118  A    between atoms: _283  and  _285
REMARK  119  A    between atoms: _285  and  _286
REMARK  120  A    between atoms: _289  and  _291
REMARK  121  A    between atoms: _291  and  _292
REMARK  122  A    between atoms: _291  and  _294
REMARK  123  A    between atoms: _294  and  _295
REMARK  124  A    between atoms: _300  and  _302
REMARK  125  A    between atoms: _302  and  _303
REMARK  126  A    between atoms: _302  and  _305
REMARK  127  A    between atoms: _305  and  _306
REMARK  128  A    between atoms: _306  and  _307
REMARK  129  A    between atoms: _309  and  _311
REMARK  130  A    between atoms: _311  and  _312
REMARK  131  A    between atoms: _311  and  _314
REMARK  132  A    between atoms: _314  and  _315
REMARK  133  A    between atoms: _315  and  _316
REMARK  134  A    between atoms: _316  and  _318
REMARK  135  A    between atoms: _318  and  MN_355
REMARK  136  A    between atoms: _319  and  _321
REMARK  137  A    between atoms: _321  and  _322
REMARK  138  A    between atoms: _321  and  _324
REMARK  139  A    between atoms: _324  and  _325
REMARK  140  A    between atoms: _327  and  _329
REMARK  141  A    between atoms: _329  and  _330
REMARK  142  A    between atoms: _329  and  _332
REMARK  143  A    between atoms: _332  and  _333
REMARK  144  A    between atoms: _336  and  _338
REMARK  145  A    between atoms: _338  and  _339
REMARK  146  A    between atoms: _338  and  _341
REMARK  147  A    between atoms: _341  and  _342
REMARK  148  A    between atoms: _342  and  _344
REMARK  149  A    between atoms: _344  and  MN_355
REMARK  150  A    between atoms: _345  and  _347
REMARK  151  A    between atoms: _347  and  _348
REMARK  152  A    between atoms: _347  and  _350
REMARK  153  A    between atoms: _350  and  _351
REMARK  154  A    between atoms: _351  and  _352
REMARK                            x       y       z     vdW  Elec       q    Type
REMARK                         _______ _______ _______ _____ _____    ______ ____
ROOT
ATOM      1  CA  ARG A   5     -15.308 -84.144   0.402  0.00  0.00    +0.149 C 
ENDROOT
BRANCH   1   3
ATOM      2  C   ALA A   4     -14.620 -86.407  -0.264  0.00  0.00    +0.241 C 
ATOM      3  N   ARG A   5     -14.305 -85.141  -0.024  0.00  0.00    -0.297 N 
ATOM      4  H   ARG A   5     -13.316 -84.840  -0.140  0.00  0.00    +0.150 HD
ATOM      5  O   ALA A   4     -15.775 -86.821  -0.239  0.00  0.00    -0.273 OA
BRANCH   2   6
ATOM      6  CA  ALA A   4     -13.466 -87.345  -0.573  0.00  0.00    +0.149 C 
ATOM      7  CB  ALA A   4     -12.866 -87.863   0.714  0.00  0.00    +0.031 C 
BRANCH   6   9
ATOM      8  C   GLY A   3     -12.725 -86.105  -2.504  0.00  0.00    +0.243 C 
ATOM      9  N   ALA A   4     -12.453 -86.695  -1.362  0.00  0.00    -0.297 N 
ATOM     10  H   ALA A   4     -11.472 -86.692  -1.016  0.00  0.00    +0.150 HD
ATOM     11  O   GLY A   3     -13.866 -86.030  -2.977  0.00  0.00    -0.273 OA
BRANCH   8  12
ATOM     12  CA  GLY A   3     -11.570 -85.402  -3.142  0.00  0.00    +0.176 C 
BRANCH  12  14
ATOM     13  C   ILE A   2     -11.807 -85.930  -5.492  0.00  0.00    +0.241 C 
ATOM     14  N   GLY A   3     -11.710 -85.019  -4.539  0.00  0.00    -0.295 N 
ATOM     15  H   GLY A   3     -11.734 -84.011  -4.792  0.00  0.00    +0.150 HD
ATOM     16  O   ILE A   2     -11.931 -87.144  -5.248  0.00  0.00    -0.273 OA
BRANCH  13  17
ATOM     17  CA  ILE A   2     -11.761 -85.413  -6.919  0.00  0.00    +0.148 C 
BRANCH  17  19
ATOM     18  C   ALA A   1      -9.499 -85.600  -7.765  0.00  0.00    +0.238 C 
ATOM     19  N   ILE A   2     -10.664 -86.173  -7.524  0.00  0.00    -0.297 N 
ATOM     20  H   ILE A   2     -10.804 -87.175  -7.766  0.00  0.00    +0.150 HD
ATOM     21  O   ALA A   1      -9.344 -84.375  -7.825  0.00  0.00    -0.274 OA
BRANCH  18  22
ATOM     22  CA  ALA A   1      -8.340 -86.522  -8.049  0.00  0.00    +0.145 C 
ATOM     23  CB  ALA A   1      -7.555 -86.680  -6.772  0.00  0.00    +0.028 C 
BRANCH  22  24
ATOM     24  N   ALA A   1      -7.519 -85.995  -9.114  0.00  0.00    -0.238 NA
ATOM     25  H   ALA A   1      -6.968 -85.130  -8.941  0.00  0.00    +0.142 HD
ENDBRANCH  22  24
ENDBRANCH  18  22
ENDBRANCH  17  19
BRANCH  17  26
ATOM     26  CB  ILE A   2     -13.129 -85.619  -7.662  0.00  0.00    +0.027 C 
ATOM     27  CG2 ILE A   2     -14.228 -84.892  -6.906  0.00  0.00    +0.002 C 
BRANCH  26  28
ATOM     28  CG1 ILE A   2     -13.054 -85.157  -9.137  0.00  0.00    +0.002 C 
ATOM     29  CD1 ILE A   2     -12.715 -83.696  -9.362  0.00  0.00    +0.000 C 
ENDBRANCH  26  28
ENDBRANCH  17  26
ENDBRANCH  13  17
ENDBRANCH  12  14
ENDBRANCH   8  12
ENDBRANCH   6   9
ENDBRANCH   2   6
ENDBRANCH   1   3
BRANCH   1  30
ATOM     30  C   ARG A   5     -16.138 -83.556  -0.728  0.00  0.00    +0.241 C 
ATOM     31  O   ARG A   5     -17.106 -82.817  -0.476  0.00  0.00    -0.273 OA
ATOM     32  N   THR A   6     -15.717 -83.848  -1.953  0.00  0.00    -0.295 N 
ATOM     33  H   THR A   6     -14.903 -84.487  -2.059  0.00  0.00    +0.150 HD
BRANCH  32  34
ATOM     34  CA  THR A   6     -16.340 -83.316  -3.152  0.00  0.00    +0.176 C 
BRANCH  34  35
ATOM     35  C   THR A   6     -16.787 -84.364  -4.181  0.00  0.00    +0.243 C 
ATOM     36  N   THR A   7     -16.553 -85.638  -3.900  0.00  0.00    -0.296 N 
ATOM     37  H   THR A   7     -16.128 -85.890  -2.985  0.00  0.00    +0.150 HD
ATOM     38  O   THR A   6     -17.335 -84.019  -5.212  0.00  0.00    -0.273 OA
BRANCH  36  39
ATOM     39  CA  THR A   7     -16.882 -86.693  -4.855  0.00  0.00    +0.164 C 
BRANCH  39  40
ATOM     40  C   THR A   7     -18.388 -86.731  -5.133  0.00  0.00    +0.229 C 
ATOM     41  O   THR A   7     -18.814 -87.021  -6.243  0.00  0.00    -0.286 OA
ENDBRANCH  39  40
BRANCH  39  42
ATOM     42  CB  THR A   7     -16.329 -88.067  -4.415  0.00  0.00    +0.136 C 
ATOM     43  CG2 THR A   7     -17.009 -89.227  -5.157  0.00  0.00    +0.034 C 
BRANCH  42  44
ATOM     44  OG1 THR A   7     -14.925 -88.110  -4.680  0.00  0.00    -0.382 OA
ATOM     45  HG1 THR A   7     -14.473 -87.390  -4.174  0.00  0.00    +0.210 HD
ENDBRANCH  42  44
ENDBRANCH  39  42
ENDBRANCH  36  39
ENDBRANCH  34  35
BRANCH  34  46
ATOM     46  CB  THR A   6     -15.400 -82.308  -3.822  0.00  0.00    +0.137 C 
ATOM     47  CG2 THR A   6     -15.473 -80.980  -3.095  0.00  0.00    +0.034 C 
BRANCH  46  48
ATOM     48  OG1 THR A   6     -14.059 -82.805  -3.763  0.00  0.00    -0.382 OA
ATOM     49  HG1 THR A   6     -13.449 -82.156  -4.195  0.00  0.00    +0.210 HD
ENDBRANCH  46  48
ENDBRANCH  34  46
ENDBRANCH  32  34
ENDBRANCH   1  30
BRANCH   1  50
ATOM     50  CB  ARG A   5     -14.619 -83.022   1.167  0.00  0.00    +0.033 C 
BRANCH  50  51
ATOM     51  CG  ARG A   5     -14.000 -83.526   2.463  0.00  0.00    +0.045 C 
BRANCH  51  52
ATOM     52  CD  ARG A   5     -13.081 -82.495   3.118  0.00  0.00    +0.174 C 
BRANCH  52  53
ATOM     53  NE  ARG A   5     -12.378 -83.097   4.252  0.00  0.00    -0.265 N 
ATOM     54  HE  ARG A   5     -12.745 -82.917   5.208  0.00  0.00    +0.259 HD
ATOM     55  CZ  ARG A   5     -11.295 -83.863   4.128  0.00  0.00    +0.342 C 
ATOM     56  NH2 ARG A   5     -10.737 -84.400   5.196  0.00  0.00    -0.292 N 
ATOM     57 HH21 ARG A   5     -11.142 -84.226   6.138  0.00  0.00    +0.255 HD
ATOM     58 HH22 ARG A   5      -9.892 -84.998   5.096  0.00  0.00    +0.255 HD
ATOM     59  NH1 ARG A   5     -10.813 -84.144   2.929  0.00  0.00    -0.292 N 
ATOM     60 HH11 ARG A   5      -9.967 -84.742   2.836  0.00  0.00    +0.255 HD
ATOM     61 HH12 ARG A   5     -11.280 -83.767   2.080  0.00  0.00    +0.255 HD
ENDBRANCH  52  53
ENDBRANCH  51  52
ENDBRANCH  50  51
ENDBRANCH   1  50
TORSDOF 24
REMARK  Name = ../refined-set-2016/4uma/4uma_pocket.pdb
REMARK  154 active torsions:
REMARK  status: ('A' for Active; 'I' for Inactive)
REMARK    1  A    between atoms: _1  and  _3
REMARK    2  A    between atoms: _3  and  _4
REMARK    3  A    between atoms: _7  and  _8
REMARK    4  A    between atoms: _13  and  _15
REMARK    5  A    between atoms: _15  and  _16
REMARK    6  A    between atoms: _15  and  _18
REMARK    7  A    between atoms: _18  and  _19
REMARK    8  A    between atoms: _19  and  MN_355
REMARK    9  A    between atoms: _20  and  _22
REMARK   10  A    between atoms: _22  and  _23
REMARK   11  A    between atoms: _22  and  _25
REMARK   12  A    between atoms: _25  and  _26
REMARK   13  A    between atoms: _28  and  _30
REMARK   14  A    between atoms: _30  and  _31
REMARK   15  A    between atoms: _30  and  _33
REMARK   16  A    between atoms: _33  and  _34
REMARK   17  A    between atoms: _34  and  _35
REMARK   18  A    between atoms: _35  and  _36
REMARK   19  A    between atoms: _45  and  _47
REMARK   20  A    between atoms: _47  and  _48
REMARK   21  A    between atoms: _47  and  _50
REMARK   22  A    between atoms: _50  and  _51
REMARK   23  A    between atoms: _56  and  _57
REMARK   24  A    between atoms: _59  and  _61
REMARK   25  A    between atoms: _61  and  _62
REMARK   26  A    between atoms: _61  and  _64
REMARK   27  A    between atoms: _64  and  _65
REMARK   28  A    between atoms: _65  and  _66
REMARK   29  A    between atoms: _69  and  _71
REMARK   30  A    between atoms: _71  and  _72
REMARK   31  A    between atoms: _71  and  _74
REMARK   32  A    between atoms: _74  and  _75
REMARK   33  A    between atoms: _75  and  _76
REMARK   34  A    between atoms: _76  and  _77
REMARK   35  A    between atoms: _77  and  _78
REMARK   36  A    between atoms: _83  and  _84
REMARK   37  A    between atoms: _89  and  _91
REMARK   38  A    between atoms: _91  and  _92
REMARK   39  A    between atoms: _91  and  _94
REMARK   40  A    between atoms: _94  and  _95
REMARK   41  A    between atoms: _95  and  _96
REMARK   42  A    between atoms: _96  and  _97
REMARK   43  A    between atoms: _106  and  _108
REMARK   44  A    between atoms: _108  and  _109
REMARK   45  A    between atoms: _108  and  _111
REMARK   46  A    between atoms: _111  and  _112
REMARK   47  A    between atoms: _112  and  _113
REMARK   48  A    between atoms: _116  and  _118
REMARK   49  A    between atoms: _118  and  _119
REMARK   50  A    between atoms: _122  and  _124
REMARK   51  A    between atoms: _124  and  _125
REMARK   52  A    between atoms: _124  and  _127
REMARK   53  A    between atoms: _127  and  _128
REMARK   54  A    between atoms: _131  and  _133
REMARK   55  A    between atoms: _133  and  _134
REMARK   56  A    between atoms: _136  and  _138
REMARK   57  A    between atoms: _138  and  _139
REMARK   58  A    between atoms: _142  and  _144
REMARK   59  A    between atoms: _144  and  _145
REMARK   60  A    between atoms: _144  and  _147
REMARK   61  A    between atoms: _147  and  _148
REMARK   62  A    between atoms: _148  and  _149
REMARK   63  A    between atoms: _149  and  _150
REMARK   64  A    between atoms: _159  and  _161
REMARK   65  A    between atoms: _161  and  _162
REMARK   66  A    between atoms: _161  and  _164
REMARK   67  A    between atoms: _164  and  _165
REMARK   68  A    between atoms: _168  and  _170
REMARK   69  A    between atoms: _170  and  _171
REMARK   70  A    between atoms: _170  and  _173
REMARK   71  A    between atoms: _173  and  _174
REMARK   72  A    between atoms: _177  and  _179
REMARK   73  A    between atoms: _179  and  _180
REMARK   74  A    between atoms: _179  and  _182
REMARK   75  A    between atoms: _182  and  _183
REMARK   76  A    between atoms: _183  and  _184
REMARK   77  A    between atoms: _184  and  _185
REMARK   78  A    between atoms: _185  and  _186
REMARK   79  A    between atoms: _190  and  _192
REMARK   80  A    between atoms: _192  and  _193
REMARK   81  A    between atoms: _192  and  _195
REMARK   82  A    between atoms: _195  and  _196
REMARK   83  A    between atoms: _201  and  _203
REMARK   84  A    between atoms: _203  and  _204
REMARK   85  A    between atoms: _206  and  _208
REMARK   86  A    between atoms: _208  and  _209
REMARK   87  A    between atoms: _208  and  _211
REMARK   88  A    between atoms: _211  and  _212
REMARK   89  A    between atoms: _215  and  _217
REMARK   90  A    between atoms: _217  and  _218
REMARK   91  A    between atoms: _217  and  _220
REMARK   92  A    between atoms: _220  and  _221
REMARK   93  A    between atoms: _224  and  _226
REMARK   94  A    between atoms: _226  and  _227
REMARK   95  A    between atoms: _226  and  _229
REMARK   96  A    between atoms: _229  and  _230
REMARK   97  A    between atoms: _233  and  _235
REMARK   98  A    between atoms: _235  and  _236
REMARK   99  A    between atoms: _235  and  _238
REMARK  100  A    between atoms: _238  and  _239
REMARK  101  A    between atoms: _239  and  _240
REMARK  102  A    between atoms: _240  and  _241
REMARK  103  A    between atoms: _250  and  _252
REMARK  104  A    between atoms: _252  and  _253
REMARK  105  A    between atoms: _255  and  _257
REMARK  106  A    between atoms: _257  and  _258
REMARK  107  A    between atoms: _257  and  _260
REMARK  108  A    between atoms: _260  and  _261
REMARK  109  A    between atoms: _264  and  _266
REMARK  110  A    between atoms: _266  and  _267
REMARK  111  A    between atoms: _266  and  _269
REMARK  112  A    between atoms: _269  and  _270
REMARK  113  A    between atoms: _272  and  _274
REMARK  114  A    between atoms: _274  and  _275
REMARK  115  A    between atoms: _274  and  _277
REMARK  116  A    between atoms: _277  and  _278
REMARK  117  A    between atoms: _282  and  MN_355
REMARK  118  A    between atoms: _283  and  _285
REMARK  119  A    between atoms: _285  and  _286
REMARK  120  A    between atoms: _289  and  _291
REMARK  121  A    between atoms: _291  and  _292
REMARK  122  A    between atoms: _291  and  _294
REMARK  123  A    between atoms: _294  and  _295
REMARK  124  A    between atoms: _300  and  _302
REMARK  125  A    between atoms: _302  and  _303
REMARK  126  A    between atoms: _302  and  _305
REMARK  127  A    between atoms: _305  and  _306
REMARK  128  A    between atoms: _306  and  _307
REMARK  129  A    between atoms: _309  and  _311
REMARK  130  A    between atoms: _311  and  _312
REMARK  131  A    between atoms: _311  and  _314
REMARK  132  A    between atoms: _314  and  _315
REMARK  133  A    between atoms: _315  and  _316
REMARK  134  A    between atoms: _316  and  _318
REMARK  135  A    between atoms: _318  and  MN_355
REMARK  136  A    between atoms: _319  and  _321
REMARK  137  A    between atoms: _321  and  _322
REMARK  138  A    between atoms: _321  and  _324
REMARK  139  A    between atoms: _324  and  _325
REMARK  140  A    between atoms: _327  and  _329
REMARK  141  A    between atoms: _329  and  _330
REMARK  142  A    between atoms: _329  and  _332
REMARK  143  A    between atoms: _332  and  _333
REMARK  144  A    between atoms: _336  and  _338
REMARK  145  A    between atoms: _338  and  _339
REMARK  146  A    between atoms: _338  and  _341
REMARK  147  A    between atoms: _341  and  _342
REMARK  148  A    between atoms: _342  and  _344
REMARK  149  A    between atoms: _344  and  MN_355
REMARK  150  A    between atoms: _345  and  _347
REMARK  151  A    between atoms: _347  and  _348
REMARK  152  A    between atoms: _347  and  _350
REMARK  153  A    between atoms: _350  and  _351
REMARK  154  A    between atoms: _351  and  _352
REMARK                            x       y       z     vdW  Elec       q    Type
REMARK                         _______ _______ _______ _____ _____    ______ ____
ROOT
ATOM      1  CA  ASN A   2     -14.823 -92.662  -1.131  0.00  0.00    +0.158 C 
ENDROOT
BRANCH   1   2
ATOM      2  C   ASN A   2     -15.004 -91.509  -0.136  0.00  0.00    +0.241 C 
ATOM      3  N   GLY A   3     -16.211 -91.386   0.398  0.00  0.00    -0.295 N 
ATOM      4  H   GLY A   3     -16.949 -92.078   0.157  0.00  0.00    +0.150 HD
ATOM      5  O   ASN A   2     -14.093 -90.706   0.067  0.00  0.00    -0.273 OA
BRANCH   3   6
ATOM      6  CA  GLY A   3     -16.521 -90.303   1.313  0.00  0.00    +0.176 C 
BRANCH   6   7
ATOM      7  C   GLY A   3     -15.781 -90.396   2.637  0.00  0.00    +0.243 C 
ATOM      8  N   THR A   4     -15.770 -89.294   3.388  0.00  0.00    -0.296 N 
ATOM      9  H   THR A   4     -16.379 -88.492   3.130  0.00  0.00    +0.150 HD
ATOM     10  O   GLY A   3     -15.208 -91.445   2.980  0.00  0.00    -0.273 OA
BRANCH   8  11
ATOM     11  CA  THR A   4     -14.916 -89.199   4.564  0.00  0.00    +0.164 C 
BRANCH  11  12
ATOM     12  C   THR A   4     -15.273 -90.158   5.680  0.00  0.00    +0.229 C 
ATOM     13  O   THR A   4     -14.427 -90.474   6.510  0.00  0.00    -0.286 OA
ENDBRANCH  11  12
BRANCH  11  14
ATOM     14  CB  THR A   4     -14.831 -87.764   5.125  0.00  0.00    +0.136 C 
ATOM     15  CG2 THR A   4     -14.106 -86.895   4.170  0.00  0.00    +0.034 C 
BRANCH  14  16
ATOM     16  OG1 THR A   4     -16.148 -87.258   5.327  0.00  0.00    -0.382 OA
ATOM     17  HG1 THR A   4     -16.095 -86.337   5.687  0.00  0.00    +0.210 HD
ENDBRANCH  14  16
ENDBRANCH  11  14
ENDBRANCH   8  11
ENDBRANCH   6   7
ENDBRANCH   3   6
ENDBRANCH   1   2
BRANCH   1  19
ATOM     18  C   LYS A   1     -13.778 -91.317  -2.826  0.00  0.00    +0.238 C 
ATOM     19  N   ASN A   2     -13.720 -92.378  -2.042  0.00  0.00    -0.297 N 
ATOM     20  H   ASN A   2     -12.893 -93.007  -2.074  0.00  0.00    +0.150 HD
ATOM     21  O   LYS A   1     -14.780 -90.619  -2.929  0.00  0.00    -0.274 OA
BRANCH  18  22
ATOM     22  CA  LYS A   1     -12.503 -90.949  -3.569  0.00  0.00    +0.145 C 
BRANCH  22  23
ATOM     23  N   LYS A   1     -12.775 -90.355  -4.852  0.00  0.00    -0.238 NA
ATOM     24  H   LYS A   1     -12.982 -89.337  -4.909  0.00  0.00    +0.142 HD
ENDBRANCH  22  23
BRANCH  22  25
ATOM     25  CB  LYS A   1     -11.666 -89.957  -2.757  0.00  0.00    +0.026 C 
BRANCH  25  26
ATOM     26  CG  LYS A   1     -10.421 -89.532  -3.521  0.00  0.00    -0.000 C 
BRANCH  26  27
ATOM     27  CD  LYS A   1      -9.400 -88.867  -2.625  0.00  0.00    -0.024 C 
BRANCH  27  28
ATOM     28  CE  LYS A   1      -8.300 -89.856  -2.251  0.00  0.00    -0.086 C 
BRANCH  28  29
ATOM     29  NZ  LYS A   1      -7.372 -89.217  -1.289  0.00  0.00    +0.380 N 
ATOM     30  HZ1 LYS A   1      -7.897 -88.940  -0.435  0.00  0.00    -0.089 HD
ATOM     31  HZ2 LYS A   1      -6.622 -89.890  -1.033  0.00  0.00    -0.089 HD
ATOM     32  HZ3 LYS A   1      -6.948 -88.374  -1.726  0.00  0.00    -0.089 HD
ENDBRANCH  28  29
ENDBRANCH  27  28
ENDBRANCH  26  27
ENDBRANCH  25  26
ENDBRANCH  22  25
ENDBRANCH  18  22
ENDBRANCH   1  19
BRANCH   1  33
ATOM     33  CB  ASN A   2     -14.688 -94.015  -0.456  0.00  0.00    +0.114 C 
BRANCH  33  34
ATOM     34  CG  ASN A   2     -13.523 -94.100   0.535  0.00  0.00    +0.222 C 
ATOM     35  ND2 ASN A   2     -13.658 -93.477   1.695  0.00  0.00    -0.329 N 
ATOM     36 HD21 ASN A   2     -12.918 -93.563   2.420  0.00  0.00    +0.145 HD
ATOM     37 HD22 ASN A   2     -14.504 -92.902   1.881  0.00  0.00    +0.145 HD
ATOM     38  OD1 ASN A   2     -12.541 -94.791   0.269  0.00  0.00    -0.275 OA
ENDBRANCH  33  34
ENDBRANCH   1  33
TORSDOF 17
REMARK  Name = ../refined-set-2016/4uma/4uma_pocket.pdb
REMARK  154 active torsions:
REMARK  status: ('A' for Active; 'I' for Inactive)
REMARK    1  A    between atoms: _1  and  _3
REMARK    2  A    between atoms: _3  and  _4
REMARK    3  A    between atoms: _7  and  _8
REMARK    4  A    between atoms: _13  and  _15
REMARK    5  A    between atoms: _15  and  _16
REMARK    6  A    between atoms: _15  and  _18
REMARK    7  A    between atoms: _18  and  _19
REMARK    8  A    between atoms: _19  and  MN_355
REMARK    9  A    between atoms: _20  and  _22
REMARK   10  A    between atoms: _22  and  _23
REMARK   11  A    between atoms: _22  and  _25
REMARK   12  A    between atoms: _25  and  _26
REMARK   13  A    between atoms: _28  and  _30
REMARK   14  A    between atoms: _30  and  _31
REMARK   15  A    between atoms: _30  and  _33
REMARK   16  A    between atoms: _33  and  _34
REMARK   17  A    between atoms: _34  and  _35
REMARK   18  A    between atoms: _35  and  _36
REMARK   19  A    between atoms: _45  and  _47
REMARK   20  A    between atoms: _47  and  _48
REMARK   21  A    between atoms: _47  and  _50
REMARK   22  A    between atoms: _50  and  _51
REMARK   23  A    between atoms: _56  and  _57
REMARK   24  A    between atoms: _59  and  _61
REMARK   25  A    between atoms: _61  and  _62
REMARK   26  A    between atoms: _61  and  _64
REMARK   27  A    between atoms: _64  and  _65
REMARK   28  A    between atoms: _65  and  _66
REMARK   29  A    between atoms: _69  and  _71
REMARK   30  A    between atoms: _71  and  _72
REMARK   31  A    between atoms: _71  and  _74
REMARK   32  A    between atoms: _74  and  _75
REMARK   33  A    between atoms: _75  and  _76
REMARK   34  A    between atoms: _76  and  _77
REMARK   35  A    between atoms: _77  and  _78
REMARK   36  A    between atoms: _83  and  _84
REMARK   37  A    between atoms: _89  and  _91
REMARK   38  A    between atoms: _91  and  _92
REMARK   39  A    between atoms: _91  and  _94
REMARK   40  A    between atoms: _94  and  _95
REMARK   41  A    between atoms: _95  and  _96
REMARK   42  A    between atoms: _96  and  _97
REMARK   43  A    between atoms: _106  and  _108
REMARK   44  A    between atoms: _108  and  _109
REMARK   45  A    between atoms: _108  and  _111
REMARK   46  A    between atoms: _111  and  _112
REMARK   47  A    between atoms: _112  and  _113
REMARK   48  A    between atoms: _116  and  _118
REMARK   49  A    between atoms: _118  and  _119
REMARK   50  A    between atoms: _122  and  _124
REMARK   51  A    between atoms: _124  and  _125
REMARK   52  A    between atoms: _124  and  _127
REMARK   53  A    between atoms: _127  and  _128
REMARK   54  A    between atoms: _131  and  _133
REMARK   55  A    between atoms: _133  and  _134
REMARK   56  A    between atoms: _136  and  _138
REMARK   57  A    between atoms: _138  and  _139
REMARK   58  A    between atoms: _142  and  _144
REMARK   59  A    between atoms: _144  and  _145
REMARK   60  A    between atoms: _144  and  _147
REMARK   61  A    between atoms: _147  and  _148
REMARK   62  A    between atoms: _148  and  _149
REMARK   63  A    between atoms: _149  and  _150
REMARK   64  A    between atoms: _159  and  _161
REMARK   65  A    between atoms: _161  and  _162
REMARK   66  A    between atoms: _161  and  _164
REMARK   67  A    between atoms: _164  and  _165
REMARK   68  A    between atoms: _168  and  _170
REMARK   69  A    between atoms: _170  and  _171
REMARK   70  A    between atoms: _170  and  _173
REMARK   71  A    between atoms: _173  and  _174
REMARK   72  A    between atoms: _177  and  _179
REMARK   73  A    between atoms: _179  and  _180
REMARK   74  A    between atoms: _179  and  _182
REMARK   75  A    between atoms: _182  and  _183
REMARK   76  A    between atoms: _183  and  _184
REMARK   77  A    between atoms: _184  and  _185
REMARK   78  A    between atoms: _185  and  _186
REMARK   79  A    between atoms: _190  and  _192
REMARK   80  A    between atoms: _192  and  _193
REMARK   81  A    between atoms: _192  and  _195
REMARK   82  A    between atoms: _195  and  _196
REMARK   83  A    between atoms: _201  and  _203
REMARK   84  A    between atoms: _203  and  _204
REMARK   85  A    between atoms: _206  and  _208
REMARK   86  A    between atoms: _208  and  _209
REMARK   87  A    between atoms: _208  and  _211
REMARK   88  A    between atoms: _211  and  _212
REMARK   89  A    between atoms: _215  and  _217
REMARK   90  A    between atoms: _217  and  _218
REMARK   91  A    between atoms: _217  and  _220
REMARK   92  A    between atoms: _220  and  _221
REMARK   93  A    between atoms: _224  and  _226
REMARK   94  A    between atoms: _226  and  _227
REMARK   95  A    between atoms: _226  and  _229
REMARK   96  A    between atoms: _229  and  _230
REMARK   97  A    between atoms: _233  and  _235
REMARK   98  A    between atoms: _235  and  _236
REMARK   99  A    between atoms: _235  and  _238
REMARK  100  A    between atoms: _238  and  _239
REMARK  101  A    between atoms: _239  and  _240
REMARK  102  A    between atoms: _240  and  _241
REMARK  103  A    between atoms: _250  and  _252
REMARK  104  A    between atoms: _252  and  _253
REMARK  105  A    between atoms: _255  and  _257
REMARK  106  A    between atoms: _257  and  _258
REMARK  107  A    between atoms: _257  and  _260
REMARK  108  A    between atoms: _260  and  _261
REMARK  109  A    between atoms: _264  and  _266
REMARK  110  A    between atoms: _266  and  _267
REMARK  111  A    between atoms: _266  and  _269
REMARK  112  A    between atoms: _269  and  _270
REMARK  113  A    between atoms: _272  and  _274
REMARK  114  A    between atoms: _274  and  _275
REMARK  115  A    between atoms: _274  and  _277
REMARK  116  A    between atoms: _277  and  _278
REMARK  117  A    between atoms: _282  and  MN_355
REMARK  118  A    between atoms: _283  and  _285
REMARK  119  A    between atoms: _285  and  _286
REMARK  120  A    between atoms: _289  and  _291
REMARK  121  A    between atoms: _291  and  _292
REMARK  122  A    between atoms: _291  and  _294
REMARK  123  A    between atoms: _294  and  _295
REMARK  124  A    between atoms: _300  and  _302
REMARK  125  A    between atoms: _302  and  _303
REMARK  126  A    between atoms: _302  and  _305
REMARK  127  A    between atoms: _305  and  _306
REMARK  128  A    between atoms: _306  and  _307
REMARK  129  A    between atoms: _309  and  _311
REMARK  130  A    between atoms: _311  and  _312
REMARK  131  A    between atoms: _311  and  _314
REMARK  132  A    between atoms: _314  and  _315
REMARK  133  A    between atoms: _315  and  _316
REMARK  134  A    between atoms: _316  and  _318
REMARK  135  A    between atoms: _318  and  MN_355
REMARK  136  A    between atoms: _319  and  _321
REMARK  137  A    between atoms: _321  and  _322
REMARK  138  A    between atoms: _321  and  _324
REMARK  139  A    between atoms: _324  and  _325
REMARK  140  A    between atoms: _327  and  _329
REMARK  141  A    between atoms: _329  and  _330
REMARK  142  A    between atoms: _329  and  _332
REMARK  143  A    between atoms: _332  and  _333
REMARK  144  A    between atoms: _336  and  _338
REMARK  145  A    between atoms: _338  and  _339
REMARK  146  A    between atoms: _338  and  _341
REMARK  147  A    between atoms: _341  and  _342
REMARK  148  A    between atoms: _342  and  _344
REMARK  149  A    between atoms: _344  and  MN_355
REMARK  150  A    between atoms: _345  and  _347
REMARK  151  A    between atoms: _347  and  _348
REMARK  152  A    between atoms: _347  and  _350
REMARK  153  A    between atoms: _350  and  _351
REMARK  154  A    between atoms: _351  and  _352
REMARK                            x       y       z     vdW  Elec       q    Type
REMARK                         _______ _______ _______ _____ _____    ______ ____
ROOT
ATOM      1  C   LEU A   2      -9.197 -95.513  -0.466  0.00  0.00    +0.241 C 
ATOM      2  N   ARG A   3      -9.753 -94.636   0.360  0.00  0.00    -0.297 N 
ATOM      3  H   ARG A   3     -10.789 -94.561   0.403  0.00  0.00    +0.150 HD
ATOM      4  O   LEU A   2      -7.947 -95.697  -0.533  0.00  0.00    -0.273 OA
ENDROOT
BRANCH   2   5
ATOM      5  CA  ARG A   3      -8.918 -93.755   1.229  0.00  0.00    +0.149 C 
BRANCH   5   6
ATOM      6  C   ARG A   3      -9.295 -93.793   2.698  0.00  0.00    +0.241 C 
ATOM      7  O   ARG A   3      -8.909 -92.913   3.470  0.00  0.00    -0.273 OA
ATOM      8  N   GLY A   4     -10.007 -94.841   3.091  0.00  0.00    -0.296 N 
ATOM      9  H   GLY A   4     -10.275 -95.552   2.381  0.00  0.00    +0.150 HD
BRANCH   8  10
ATOM     10  CA  GLY A   4     -10.427 -95.040   4.460  0.00  0.00    +0.163 C 
BRANCH  10  11
ATOM     11  C   GLY A   4     -11.710 -94.280   4.825  0.00  0.00    +0.229 C 
ATOM     12  O   GLY A   4     -12.088 -93.312   4.166  0.00  0.00    -0.286 OA
ENDBRANCH  10  11
ENDBRANCH   8  10
ENDBRANCH   5   6
BRANCH   5  13
ATOM     13  CB  ARG A   3      -8.876 -92.315   0.696  0.00  0.00    +0.033 C 
BRANCH  13  14
ATOM     14  CG  ARG A   3     -10.231 -91.636   0.432  0.00  0.00    +0.045 C 
BRANCH  14  15
ATOM     15  CD  ARG A   3     -10.954 -91.249   1.721  0.00  0.00    +0.174 C 
BRANCH  15  16
ATOM     16  NE  ARG A   3     -10.423 -90.021   2.320  0.00  0.00    -0.265 N 
ATOM     17  CZ  ARG A   3     -10.713 -89.587   3.538  0.00  0.00    +0.342 C 
ATOM     18  NH2 ARG A   3     -11.460 -90.301   4.350  0.00  0.00    -0.292 N 
ATOM     19 HH21 ARG A   3     -11.678 -89.946   5.303  0.00  0.00    +0.255 HD
ATOM     20 HH22 ARG A   3     -11.833 -91.221   4.040  0.00  0.00    +0.255 HD
ATOM     21  NH1 ARG A   3     -10.226 -88.433   3.962  0.00  0.00    -0.292 N 
ATOM     22 HH11 ARG A   3     -10.454 -88.092   4.918  0.00  0.00    +0.255 HD
ATOM     23 HH12 ARG A   3      -9.615 -87.866   3.340  0.00  0.00    +0.255 HD
ATOM     24  HE  ARG A   3      -9.771 -89.448   1.747  0.00  0.00    +0.259 HD
ENDBRANCH  15  16
ENDBRANCH  14  15
ENDBRANCH  13  14
ENDBRANCH   5  13
ENDBRANCH   2   5
BRANCH   1  25
ATOM     25  CA  LEU A   2     -10.138 -96.271  -1.385  0.00  0.00    +0.149 C 
BRANCH  25  27
ATOM     26  C   ILE A   1     -10.432 -94.853  -3.365  0.00  0.00    +0.238 C 
ATOM     27  N   LEU A   2      -9.852 -95.890  -2.763  0.00  0.00    -0.297 N 
ATOM     28  H   LEU A   2      -9.163 -96.454  -3.301  0.00  0.00    +0.150 HD
ATOM     29  O   ILE A   1     -11.343 -94.192  -2.850  0.00  0.00    -0.274 OA
BRANCH  26  30
ATOM     30  CA  ILE A   1      -9.933 -94.535  -4.775  0.00  0.00    +0.145 C 
BRANCH  30  31
ATOM     31  CB  ILE A   1      -9.200 -93.181  -4.725  0.00  0.00    +0.025 C 
ATOM     32  CG2 ILE A   1      -7.996 -93.299  -3.806  0.00  0.00    +0.002 C 
BRANCH  31  33
ATOM     33  CG1 ILE A   1      -8.810 -92.735  -6.127  0.00  0.00    +0.002 C 
ATOM     34  CD1 ILE A   1      -8.377 -91.289  -6.172  0.00  0.00    +0.000 C 
ENDBRANCH  31  33
ENDBRANCH  30  31
BRANCH  30  35
ATOM     35  N   ILE A   1     -11.082 -94.496  -5.668  0.00  0.00    -0.238 NA
ATOM     36  H   ILE A   1     -11.899 -93.911  -5.400  0.00  0.00    +0.142 HD
ENDBRANCH  30  35
ENDBRANCH  26  30
ENDBRANCH  25  27
BRANCH  25  37
ATOM     37  CB  LEU A   2      -9.973 -97.785  -1.210  0.00  0.00    +0.029 C 
BRANCH  37  38
ATOM     38  CG  LEU A   2     -10.847 -98.691  -2.092  0.00  0.00    +0.002 C 
ATOM     39  CD2 LEU A   2     -12.309 -98.456  -1.803  0.00  0.00    +0.000 C 
ATOM     40  CD1 LEU A   2     -10.494-100.161  -1.931  0.00  0.00    +0.000 C 
ENDBRANCH  37  38
ENDBRANCH  25  37
ENDBRANCH   1  25
TORSDOF 16
REMARK  Name = ../refined-set-2016/4uma/4uma_pocket.pdb
REMARK  154 active torsions:
REMARK  status: ('A' for Active; 'I' for Inactive)
REMARK    1  A    between atoms: _1  and  _3
REMARK    2  A    between atoms: _3  and  _4
REMARK    3  A    between atoms: _7  and  _8
REMARK    4  A    between atoms: _13  and  _15
REMARK    5  A    between atoms: _15  and  _16
REMARK    6  A    between atoms: _15  and  _18
REMARK    7  A    between atoms: _18  and  _19
REMARK    8  A    between atoms: _19  and  MN_355
REMARK    9  A    between atoms: _20  and  _22
REMARK   10  A    between atoms: _22  and  _23
REMARK   11  A    between atoms: _22  and  _25
REMARK   12  A    between atoms: _25  and  _26
REMARK   13  A    between atoms: _28  and  _30
REMARK   14  A    between atoms: _30  and  _31
REMARK   15  A    between atoms: _30  and  _33
REMARK   16  A    between atoms: _33  and  _34
REMARK   17  A    between atoms: _34  and  _35
REMARK   18  A    between atoms: _35  and  _36
REMARK   19  A    between atoms: _45  and  _47
REMARK   20  A    between atoms: _47  and  _48
REMARK   21  A    between atoms: _47  and  _50
REMARK   22  A    between atoms: _50  and  _51
REMARK   23  A    between atoms: _56  and  _57
REMARK   24  A    between atoms: _59  and  _61
REMARK   25  A    between atoms: _61  and  _62
REMARK   26  A    between atoms: _61  and  _64
REMARK   27  A    between atoms: _64  and  _65
REMARK   28  A    between atoms: _65  and  _66
REMARK   29  A    between atoms: _69  and  _71
REMARK   30  A    between atoms: _71  and  _72
REMARK   31  A    between atoms: _71  and  _74
REMARK   32  A    between atoms: _74  and  _75
REMARK   33  A    between atoms: _75  and  _76
REMARK   34  A    between atoms: _76  and  _77
REMARK   35  A    between atoms: _77  and  _78
REMARK   36  A    between atoms: _83  and  _84
REMARK   37  A    between atoms: _89  and  _91
REMARK   38  A    between atoms: _91  and  _92
REMARK   39  A    between atoms: _91  and  _94
REMARK   40  A    between atoms: _94  and  _95
REMARK   41  A    between atoms: _95  and  _96
REMARK   42  A    between atoms: _96  and  _97
REMARK   43  A    between atoms: _106  and  _108
REMARK   44  A    between atoms: _108  and  _109
REMARK   45  A    between atoms: _108  and  _111
REMARK   46  A    between atoms: _111  and  _112
REMARK   47  A    between atoms: _112  and  _113
REMARK   48  A    between atoms: _116  and  _118
REMARK   49  A    between atoms: _118  and  _119
REMARK   50  A    between atoms: _122  and  _124
REMARK   51  A    between atoms: _124  and  _125
REMARK   52  A    between atoms: _124  and  _127
REMARK   53  A    between atoms: _127  and  _128
REMARK   54  A    between atoms: _131  and  _133
REMARK   55  A    between atoms: _133  and  _134
REMARK   56  A    between atoms: _136  and  _138
REMARK   57  A    between atoms: _138  and  _139
REMARK   58  A    between atoms: _142  and  _144
REMARK   59  A    between atoms: _144  and  _145
REMARK   60  A    between atoms: _144  and  _147
REMARK   61  A    between atoms: _147  and  _148
REMARK   62  A    between atoms: _148  and  _149
REMARK   63  A    between atoms: _149  and  _150
REMARK   64  A    between atoms: _159  and  _161
REMARK   65  A    between atoms: _161  and  _162
REMARK   66  A    between atoms: _161  and  _164
REMARK   67  A    between atoms: _164  and  _165
REMARK   68  A    between atoms: _168  and  _170
REMARK   69  A    between atoms: _170  and  _171
REMARK   70  A    between atoms: _170  and  _173
REMARK   71  A    between atoms: _173  and  _174
REMARK   72  A    between atoms: _177  and  _179
REMARK   73  A    between atoms: _179  and  _180
REMARK   74  A    between atoms: _179  and  _182
REMARK   75  A    between atoms: _182  and  _183
REMARK   76  A    between atoms: _183  and  _184
REMARK   77  A    between atoms: _184  and  _185
REMARK   78  A    between atoms: _185  and  _186
REMARK   79  A    between atoms: _190  and  _192
REMARK   80  A    between atoms: _192  and  _193
REMARK   81  A    between atoms: _192  and  _195
REMARK   82  A    between atoms: _195  and  _196
REMARK   83  A    between atoms: _201  and  _203
REMARK   84  A    between atoms: _203  and  _204
REMARK   85  A    between atoms: _206  and  _208
REMARK   86  A    between atoms: _208  and  _209
REMARK   87  A    between atoms: _208  and  _211
REMARK   88  A    between atoms: _211  and  _212
REMARK   89  A    between atoms: _215  and  _217
REMARK   90  A    between atoms: _217  and  _218
REMARK   91  A    between atoms: _217  and  _220
REMARK   92  A    between atoms: _220  and  _221
REMARK   93  A    between atoms: _224  and  _226
REMARK   94  A    between atoms: _226  and  _227
REMARK   95  A    between atoms: _226  and  _229
REMARK   96  A    between atoms: _229  and  _230
REMARK   97  A    between atoms: _233  and  _235
REMARK   98  A    between atoms: _235  and  _236
REMARK   99  A    between atoms: _235  and  _238
REMARK  100  A    between atoms: _238  and  _239
REMARK  101  A    between atoms: _239  and  _240
REMARK  102  A    between atoms: _240  and  _241
REMARK  103  A    between atoms: _250  and  _252
REMARK  104  A    between atoms: _252  and  _253
REMARK  105  A    between atoms: _255  and  _257
REMARK  106  A    between atoms: _257  and  _258
REMARK  107  A    between atoms: _257  and  _260
REMARK  108  A    between atoms: _260  and  _261
REMARK  109  A    between atoms: _264  and  _266
REMARK  110  A    between atoms: _266  and  _267
REMARK  111  A    between atoms: _266  and  _269
REMARK  112  A    between atoms: _269  and  _270
REMARK  113  A    between atoms: _272  and  _274
REMARK  114  A    between atoms: _274  and  _275
REMARK  115  A    between atoms: _274  and  _277
REMARK  116  A    between atoms: _277  and  _278
REMARK  117  A    between atoms: _282  and  MN_355
REMARK  118  A    between atoms: _283  and  _285
REMARK  119  A    between atoms: _285  and  _286
REMARK  120  A    between atoms: _289  and  _291
REMARK  121  A    between atoms: _291  and  _292
REMARK  122  A    between atoms: _291  and  _294
REMARK  123  A    between atoms: _294  and  _295
REMARK  124  A    between atoms: _300  and  _302
REMARK  125  A    between atoms: _302  and  _303
REMARK  126  A    between atoms: _302  and  _305
REMARK  127  A    between atoms: _305  and  _306
REMARK  128  A    between atoms: _306  and  _307
REMARK  129  A    between atoms: _309  and  _311
REMARK  130  A    between atoms: _311  and  _312
REMARK  131  A    between atoms: _311  and  _314
REMARK  132  A    between atoms: _314  and  _315
REMARK  133  A    between atoms: _315  and  _316
REMARK  134  A    between atoms: _316  and  _318
REMARK  135  A    between atoms: _318  and  MN_355
REMARK  136  A    between atoms: _319  and  _321
REMARK  137  A    between atoms: _321  and  _322
REMARK  138  A    between atoms: _321  and  _324
REMARK  139  A    between atoms: _324  and  _325
REMARK  140  A    between atoms: _327  and  _329
REMARK  141  A    between atoms: _329  and  _330
REMARK  142  A    between atoms: _329  and  _332
REMARK  143  A    between atoms: _332  and  _333
REMARK  144  A    between atoms: _336  and  _338
REMARK  145  A    between atoms: _338  and  _339
REMARK  146  A    between atoms: _338  and  _341
REMARK  147  A    between atoms: _341  and  _342
REMARK  148  A    between atoms: _342  and  _344
REMARK  149  A    between atoms: _344  and  MN_355
REMARK  150  A    between atoms: _345  and  _347
REMARK  151  A    between atoms: _347  and  _348
REMARK  152  A    between atoms: _347  and  _350
REMARK  153  A    between atoms: _350  and  _351
REMARK  154  A    between atoms: _351  and  _352
REMARK                            x       y       z     vdW  Elec       q    Type
REMARK                         _______ _______ _______ _____ _____    ______ ____
ROOT
ATOM      1  CA  ASP A   1      -4.585 -94.378  -0.863  0.00  0.00    +0.144 C 
ENDROOT
BRANCH   1   2
ATOM      2  N   ASP A   1      -5.356 -95.433  -1.540  0.00  0.00    -0.239 NA
ATOM      3  H   ASP A   1      -6.386 -95.464  -1.399  0.00  0.00    +0.142 HD
ENDBRANCH   1   2
BRANCH   1   4
ATOM      4  C   ASP A   1      -3.979 -94.956   0.421  0.00  0.00    +0.225 C 
ATOM      5  O   ASP A   1      -4.698 -95.447   1.278  0.00  0.00    -0.287 OA
ENDBRANCH   1   4
BRANCH   1   6
ATOM      6  CB  ASP A   1      -5.518 -93.206  -0.548  0.00  0.00    +0.139 C 
BRANCH   6   7
ATOM      7  CG  ASP A   1      -4.797 -91.956  -0.008  0.00  0.00    +0.367 C 
ATOM      8  OD2 ASP A   1      -3.555 -91.951   0.244  0.00  0.00    -0.246 OA
ATOM      9  OD1 ASP A   1      -5.511 -90.956   0.140  0.00  0.00    -0.246 OA
ENDBRANCH   6   7
ENDBRANCH   1   6
TORSDOF 4
REMARK  Name = ../refined-set-2016/4uma/4uma_pocket.pdb
REMARK  154 active torsions:
REMARK  status: ('A' for Active; 'I' for Inactive)
REMARK    1  A    between atoms: _1  and  _3
REMARK    2  A    between atoms: _3  and  _4
REMARK    3  A    between atoms: _7  and  _8
REMARK    4  A    between atoms: _13  and  _15
REMARK    5  A    between atoms: _15  and  _16
REMARK    6  A    between atoms: _15  and  _18
REMARK    7  A    between atoms: _18  and  _19
REMARK    8  A    between atoms: _19  and  MN_355
REMARK    9  A    between atoms: _20  and  _22
REMARK   10  A    between atoms: _22  and  _23
REMARK   11  A    between atoms: _22  and  _25
REMARK   12  A    between atoms: _25  and  _26
REMARK   13  A    between atoms: _28  and  _30
REMARK   14  A    between atoms: _30  and  _31
REMARK   15  A    between atoms: _30  and  _33
REMARK   16  A    between atoms: _33  and  _34
REMARK   17  A    between atoms: _34  and  _35
REMARK   18  A    between atoms: _35  and  _36
REMARK   19  A    between atoms: _45  and  _47
REMARK   20  A    between atoms: _47  and  _48
REMARK   21  A    between atoms: _47  and  _50
REMARK   22  A    between atoms: _50  and  _51
REMARK   23  A    between atoms: _56  and  _57
REMARK   24  A    between atoms: _59  and  _61
REMARK   25  A    between atoms: _61  and  _62
REMARK   26  A    between atoms: _61  and  _64
REMARK   27  A    between atoms: _64  and  _65
REMARK   28  A    between atoms: _65  and  _66
REMARK   29  A    between atoms: _69  and  _71
REMARK   30  A    between atoms: _71  and  _72
REMARK   31  A    between atoms: _71  and  _74
REMARK   32  A    between atoms: _74  and  _75
REMARK   33  A    between atoms: _75  and  _76
REMARK   34  A    between atoms: _76  and  _77
REMARK   35  A    between atoms: _77  and  _78
REMARK   36  A    between atoms: _83  and  _84
REMARK   37  A    between atoms: _89  and  _91
REMARK   38  A    between atoms: _91  and  _92
REMARK   39  A    between atoms: _91  and  _94
REMARK   40  A    between atoms: _94  and  _95
REMARK   41  A    between atoms: _95  and  _96
REMARK   42  A    between atoms: _96  and  _97
REMARK   43  A    between atoms: _106  and  _108
REMARK   44  A    between atoms: _108  and  _109
REMARK   45  A    between atoms: _108  and  _111
REMARK   46  A    between atoms: _111  and  _112
REMARK   47  A    between atoms: _112  and  _113
REMARK   48  A    between atoms: _116  and  _118
REMARK   49  A    between atoms: _118  and  _119
REMARK   50  A    between atoms: _122  and  _124
REMARK   51  A    between atoms: _124  and  _125
REMARK   52  A    between atoms: _124  and  _127
REMARK   53  A    between atoms: _127  and  _128
REMARK   54  A    between atoms: _131  and  _133
REMARK   55  A    between atoms: _133  and  _134
REMARK   56  A    between atoms: _136  and  _138
REMARK   57  A    between atoms: _138  and  _139
REMARK   58  A    between atoms: _142  and  _144
REMARK   59  A    between atoms: _144  and  _145
REMARK   60  A    between atoms: _144  and  _147
REMARK   61  A    between atoms: _147  and  _148
REMARK   62  A    between atoms: _148  and  _149
REMARK   63  A    between atoms: _149  and  _150
REMARK   64  A    between atoms: _159  and  _161
REMARK   65  A    between atoms: _161  and  _162
REMARK   66  A    between atoms: _161  and  _164
REMARK   67  A    between atoms: _164  and  _165
REMARK   68  A    between atoms: _168  and  _170
REMARK   69  A    between atoms: _170  and  _171
REMARK   70  A    between atoms: _170  and  _173
REMARK   71  A    between atoms: _173  and  _174
REMARK   72  A    between atoms: _177  and  _179
REMARK   73  A    between atoms: _179  and  _180
REMARK   74  A    between atoms: _179  and  _182
REMARK   75  A    between atoms: _182  and  _183
REMARK   76  A    between atoms: _183  and  _184
REMARK   77  A    between atoms: _184  and  _185
REMARK   78  A    between atoms: _185  and  _186
REMARK   79  A    between atoms: _190  and  _192
REMARK   80  A    between atoms: _192  and  _193
REMARK   81  A    between atoms: _192  and  _195
REMARK   82  A    between atoms: _195  and  _196
REMARK   83  A    between atoms: _201  and  _203
REMARK   84  A    between atoms: _203  and  _204
REMARK   85  A    between atoms: _206  and  _208
REMARK   86  A    between atoms: _208  and  _209
REMARK   87  A    between atoms: _208  and  _211
REMARK   88  A    between atoms: _211  and  _212
REMARK   89  A    between atoms: _215  and  _217
REMARK   90  A    between atoms: _217  and  _218
REMARK   91  A    between atoms: _217  and  _220
REMARK   92  A    between atoms: _220  and  _221
REMARK   93  A    between atoms: _224  and  _226
REMARK   94  A    between atoms: _226  and  _227
REMARK   95  A    between atoms: _226  and  _229
REMARK   96  A    between atoms: _229  and  _230
REMARK   97  A    between atoms: _233  and  _235
REMARK   98  A    between atoms: _235  and  _236
REMARK   99  A    between atoms: _235  and  _238
REMARK  100  A    between atoms: _238  and  _239
REMARK  101  A    between atoms: _239  and  _240
REMARK  102  A    between atoms: _240  and  _241
REMARK  103  A    between atoms: _250  and  _252
REMARK  104  A    between atoms: _252  and  _253
REMARK  105  A    between atoms: _255  and  _257
REMARK  106  A    between atoms: _257  and  _258
REMARK  107  A    between atoms: _257  and  _260
REMARK  108  A    between atoms: _260  and  _261
REMARK  109  A    between atoms: _264  and  _266
REMARK  110  A    between atoms: _266  and  _267
REMARK  111  A    between atoms: _266  and  _269
REMARK  112  A    between atoms: _269  and  _270
REMARK  113  A    between atoms: _272  and  _274
REMARK  114  A    between atoms: _274  and  _275
REMARK  115  A    between atoms: _274  and  _277
REMARK  116  A    between atoms: _277  and  _278
REMARK  117  A    between atoms: _282  and  MN_355
REMARK  118  A    between atoms: _283  and  _285
REMARK  119  A    between atoms: _285  and  _286
REMARK  120  A    between atoms: _289  and  _291
REMARK  121  A    between atoms: _291  and  _292
REMARK  122  A    between atoms: _291  and  _294
REMARK  123  A    between atoms: _294  and  _295
REMARK  124  A    between atoms: _300  and  _302
REMARK  125  A    between atoms: _302  and  _303
REMARK  126  A    between atoms: _302  and  _305
REMARK  127  A    between atoms: _305  and  _306
REMARK  128  A    between atoms: _306  and  _307
REMARK  129  A    between atoms: _309  and  _311
REMARK  130  A    between atoms: _311  and  _312
REMARK  131  A    between atoms: _311  and  _314
REMARK  132  A    between atoms: _314  and  _315
REMARK  133  A    between atoms: _315  and  _316
REMARK  134  A    between atoms: _316  and  _318
REMARK  135  A    between atoms: _318  and  MN_355
REMARK  136  A    between atoms: _319  and  _321
REMARK  137  A    between atoms: _321  and  _322
REMARK  138  A    between atoms: _321  and  _324
REMARK  139  A    between atoms: _324  and  _325
REMARK  140  A    between atoms: _327  and  _329
REMARK  141  A    between atoms: _329  and  _330
REMARK  142  A    between atoms: _329  and  _332
REMARK  143  A    between atoms: _332  and  _333
REMARK  144  A    between atoms: _336  and  _338
REMARK  145  A    between atoms: _338  and  _339
REMARK  146  A    between atoms: _338  and  _341
REMARK  147  A    between atoms: _341  and  _342
REMARK  148  A    between atoms: _342  and  _344
REMARK  149  A    between atoms: _344  and  MN_355
REMARK  150  A    between atoms: _345  and  _347
REMARK  151  A    between atoms: _347  and  _348
REMARK  152  A    between atoms: _347  and  _350
REMARK  153  A    between atoms: _350  and  _351
REMARK  154  A    between atoms: _351  and  _352
REMARK                            x       y       z     vdW  Elec       q    Type
REMARK                         _______ _______ _______ _____ _____    ______ ____
ROOT
ATOM      1  CA  MET A   1      -1.293 -93.019  -3.450  0.00  0.00    +0.134 C 
ENDROOT
BRANCH   1   2
ATOM      2  N   MET A   1      -1.674 -94.388  -3.758  0.00  0.00    -0.239 NA
ATOM      3  H   MET A   1      -2.230 -94.918  -3.057  0.00  0.00    +0.142 HD
ENDBRANCH   1   2
BRANCH   1   4
ATOM      4  C   MET A   1      -0.496 -93.009  -2.182  0.00  0.00    +0.224 C 
ATOM      5  O   MET A   1      -0.788 -93.747  -1.272  0.00  0.00    -0.287 OA
ENDBRANCH   1   4
BRANCH   1   6
ATOM      6  CB  MET A   1      -2.476 -92.085  -3.250  0.00  0.00    +0.037 C 
BRANCH   6   7
ATOM      7  CG  MET A   1      -3.527 -92.188  -4.317  0.00  0.00    +0.059 C 
BRANCH   7   8
ATOM      8  SD  MET A   1      -4.916 -91.070  -3.968  0.00  0.00    -0.139 S 
ATOM      9  CE  MET A   1      -4.205 -89.480  -4.206  0.00  0.00    +0.069 C 
ENDBRANCH   7   8
ENDBRANCH   6   7
ENDBRANCH   1   6
TORSDOF 5
REMARK  Name = ../refined-set-2016/4uma/4uma_pocket.pdb
REMARK  154 active torsions:
REMARK  status: ('A' for Active; 'I' for Inactive)
REMARK    1  A    between atoms: _1  and  _3
REMARK    2  A    between atoms: _3  and  _4
REMARK    3  A    between atoms: _7  and  _8
REMARK    4  A    between atoms: _13  and  _15
REMARK    5  A    between atoms: _15  and  _16
REMARK    6  A    between atoms: _15  and  _18
REMARK    7  A    between atoms: _18  and  _19
REMARK    8  A    between atoms: _19  and  MN_355
REMARK    9  A    between atoms: _20  and  _22
REMARK   10  A    between atoms: _22  and  _23
REMARK   11  A    between atoms: _22  and  _25
REMARK   12  A    between atoms: _25  and  _26
REMARK   13  A    between atoms: _28  and  _30
REMARK   14  A    between atoms: _30  and  _31
REMARK   15  A    between atoms: _30  and  _33
REMARK   16  A    between atoms: _33  and  _34
REMARK   17  A    between atoms: _34  and  _35
REMARK   18  A    between atoms: _35  and  _36
REMARK   19  A    between atoms: _45  and  _47
REMARK   20  A    between atoms: _47  and  _48
REMARK   21  A    between atoms: _47  and  _50
REMARK   22  A    between atoms: _50  and  _51
REMARK   23  A    between atoms: _56  and  _57
REMARK   24  A    between atoms: _59  and  _61
REMARK   25  A    between atoms: _61  and  _62
REMARK   26  A    between atoms: _61  and  _64
REMARK   27  A    between atoms: _64  and  _65
REMARK   28  A    between atoms: _65  and  _66
REMARK   29  A    between atoms: _69  and  _71
REMARK   30  A    between atoms: _71  and  _72
REMARK   31  A    between atoms: _71  and  _74
REMARK   32  A    between atoms: _74  and  _75
REMARK   33  A    between atoms: _75  and  _76
REMARK   34  A    between atoms: _76  and  _77
REMARK   35  A    between atoms: _77  and  _78
REMARK   36  A    between atoms: _83  and  _84
REMARK   37  A    between atoms: _89  and  _91
REMARK   38  A    between atoms: _91  and  _92
REMARK   39  A    between atoms: _91  and  _94
REMARK   40  A    between atoms: _94  and  _95
REMARK   41  A    between atoms: _95  and  _96
REMARK   42  A    between atoms: _96  and  _97
REMARK   43  A    between atoms: _106  and  _108
REMARK   44  A    between atoms: _108  and  _109
REMARK   45  A    between atoms: _108  and  _111
REMARK   46  A    between atoms: _111  and  _112
REMARK   47  A    between atoms: _112  and  _113
REMARK   48  A    between atoms: _116  and  _118
REMARK   49  A    between atoms: _118  and  _119
REMARK   50  A    between atoms: _122  and  _124
REMARK   51  A    between atoms: _124  and  _125
REMARK   52  A    between atoms: _124  and  _127
REMARK   53  A    between atoms: _127  and  _128
REMARK   54  A    between atoms: _131  and  _133
REMARK   55  A    between atoms: _133  and  _134
REMARK   56  A    between atoms: _136  and  _138
REMARK   57  A    between atoms: _138  and  _139
REMARK   58  A    between atoms: _142  and  _144
REMARK   59  A    between atoms: _144  and  _145
REMARK   60  A    between atoms: _144  and  _147
REMARK   61  A    between atoms: _147  and  _148
REMARK   62  A    between atoms: _148  and  _149
REMARK   63  A    between atoms: _149  and  _150
REMARK   64  A    between atoms: _159  and  _161
REMARK   65  A    between atoms: _161  and  _162
REMARK   66  A    between atoms: _161  and  _164
REMARK   67  A    between atoms: _164  and  _165
REMARK   68  A    between atoms: _168  and  _170
REMARK   69  A    between atoms: _170  and  _171
REMARK   70  A    between atoms: _170  and  _173
REMARK   71  A    between atoms: _173  and  _174
REMARK   72  A    between atoms: _177  and  _179
REMARK   73  A    between atoms: _179  and  _180
REMARK   74  A    between atoms: _179  and  _182
REMARK   75  A    between atoms: _182  and  _183
REMARK   76  A    between atoms: _183  and  _184
REMARK   77  A    between atoms: _184  and  _185
REMARK   78  A    between atoms: _185  and  _186
REMARK   79  A    between atoms: _190  and  _192
REMARK   80  A    between atoms: _192  and  _193
REMARK   81  A    between atoms: _192  and  _195
REMARK   82  A    between atoms: _195  and  _196
REMARK   83  A    between atoms: _201  and  _203
REMARK   84  A    between atoms: _203  and  _204
REMARK   85  A    between atoms: _206  and  _208
REMARK   86  A    between atoms: _208  and  _209
REMARK   87  A    between atoms: _208  and  _211
REMARK   88  A    between atoms: _211  and  _212
REMARK   89  A    between atoms: _215  and  _217
REMARK   90  A    between atoms: _217  and  _218
REMARK   91  A    between atoms: _217  and  _220
REMARK   92  A    between atoms: _220  and  _221
REMARK   93  A    between atoms: _224  and  _226
REMARK   94  A    between atoms: _226  and  _227
REMARK   95  A    between atoms: _226  and  _229
REMARK   96  A    between atoms: _229  and  _230
REMARK   97  A    between atoms: _233  and  _235
REMARK   98  A    between atoms: _235  and  _236
REMARK   99  A    between atoms: _235  and  _238
REMARK  100  A    between atoms: _238  and  _239
REMARK  101  A    between atoms: _239  and  _240
REMARK  102  A    between atoms: _240  and  _241
REMARK  103  A    between atoms: _250  and  _252
REMARK  104  A    between atoms: _252  and  _253
REMARK  105  A    between atoms: _255  and  _257
REMARK  106  A    between atoms: _257  and  _258
REMARK  107  A    between atoms: _257  and  _260
REMARK  108  A    between atoms: _260  and  _261
REMARK  109  A    between atoms: _264  and  _266
REMARK  110  A    between atoms: _266  and  _267
REMARK  111  A    between atoms: _266  and  _269
REMARK  112  A    between atoms: _269  and  _270
REMARK  113  A    between atoms: _272  and  _274
REMARK  114  A    between atoms: _274  and  _275
REMARK  115  A    between atoms: _274  and  _277
REMARK  116  A    between atoms: _277  and  _278
REMARK  117  A    between atoms: _282  and  MN_355
REMARK  118  A    between atoms: _283  and  _285
REMARK  119  A    between atoms: _285  and  _286
REMARK  120  A    between atoms: _289  and  _291
REMARK  121  A    between atoms: _291  and  _292
REMARK  122  A    between atoms: _291  and  _294
REMARK  123  A    between atoms: _294  and  _295
REMARK  124  A    between atoms: _300  and  _302
REMARK  125  A    between atoms: _302  and  _303
REMARK  126  A    between atoms: _302  and  _305
REMARK  127  A    between atoms: _305  and  _306
REMARK  128  A    between atoms: _306  and  _307
REMARK  129  A    between atoms: _309  and  _311
REMARK  130  A    between atoms: _311  and  _312
REMARK  131  A    between atoms: _311  and  _314
REMARK  132  A    between atoms: _314  and  _315
REMARK  133  A    between atoms: _315  and  _316
REMARK  134  A    between atoms: _316  and  _318
REMARK  135  A    between atoms: _318  and  MN_355
REMARK  136  A    between atoms: _319  and  _321
REMARK  137  A    between atoms: _321  and  _322
REMARK  138  A    between atoms: _321  and  _324
REMARK  139  A    between atoms: _324  and  _325
REMARK  140  A    between atoms: _327  and  _329
REMARK  141  A    between atoms: _329  and  _330
REMARK  142  A    between atoms: _329  and  _332
REMARK  143  A    between atoms: _332  and  _333
REMARK  144  A    between atoms: _336  and  _338
REMARK  145  A    between atoms: _338  and  _339
REMARK  146  A    between atoms: _338  and  _341
REMARK  147  A    between atoms: _341  and  _342
REMARK  148  A    between atoms: _342  and  _344
REMARK  149  A    between atoms: _344  and  MN_355
REMARK  150  A    between atoms: _345  and  _347
REMARK  151  A    between atoms: _347  and  _348
REMARK  152  A    between atoms: _347  and  _350
REMARK  153  A    between atoms: _350  and  _351
REMARK  154  A    between atoms: _351  and  _352
REMARK                            x       y       z     vdW  Elec       q    Type
REMARK                         _______ _______ _______ _____ _____    ______ ____
ROOT
ATOM      1  CA  SER A   1       4.974 -80.593   4.749  0.00  0.00    +0.163 C 
ENDROOT
BRANCH   1   2
ATOM      2  N   SER A   1       6.374 -80.970   4.957  0.00  0.00    -0.237 NA
ATOM      3  H   SER A   1       6.608 -81.977   5.067  0.00  0.00    +0.142 HD
ENDBRANCH   1   2
BRANCH   1   4
ATOM      4  CB  SER A   1       4.445 -79.593   5.773  0.00  0.00    +0.227 C 
ATOM      5  OG  SER A   1       4.730 -79.703   6.952  0.00  0.00    -0.287 OA
ENDBRANCH   1   4
BRANCH   1   6
ATOM      6  C   SER A   1       4.093 -81.853   4.794  0.00  0.00    +0.162 C 
BRANCH   6   7
ATOM      7  O   SER A   1       2.726 -81.543   4.560  0.00  0.00    -0.380 OA
ATOM      8  H   SER A   1       2.189 -82.374   4.596  0.00  0.00    +0.211 HD
ENDBRANCH   6   7
ENDBRANCH   1   6
TORSDOF 4
REMARK  Name = ../refined-set-2016/4uma/4uma_pocket.pdb
REMARK  154 active torsions:
REMARK  status: ('A' for Active; 'I' for Inactive)
REMARK    1  A    between atoms: _1  and  _3
REMARK    2  A    between atoms: _3  and  _4
REMARK    3  A    between atoms: _7  and  _8
REMARK    4  A    between atoms: _13  and  _15
REMARK    5  A    between atoms: _15  and  _16
REMARK    6  A    between atoms: _15  and  _18
REMARK    7  A    between atoms: _18  and  _19
REMARK    8  A    between atoms: _19  and  MN_355
REMARK    9  A    between atoms: _20  and  _22
REMARK   10  A    between atoms: _22  and  _23
REMARK   11  A    between atoms: _22  and  _25
REMARK   12  A    between atoms: _25  and  _26
REMARK   13  A    between atoms: _28  and  _30
REMARK   14  A    between atoms: _30  and  _31
REMARK   15  A    between atoms: _30  and  _33
REMARK   16  A    between atoms: _33  and  _34
REMARK   17  A    between atoms: _34  and  _35
REMARK   18  A    between atoms: _35  and  _36
REMARK   19  A    between atoms: _45  and  _47
REMARK   20  A    between atoms: _47  and  _48
REMARK   21  A    between atoms: _47  and  _50
REMARK   22  A    between atoms: _50  and  _51
REMARK   23  A    between atoms: _56  and  _57
REMARK   24  A    between atoms: _59  and  _61
REMARK   25  A    between atoms: _61  and  _62
REMARK   26  A    between atoms: _61  and  _64
REMARK   27  A    between atoms: _64  and  _65
REMARK   28  A    between atoms: _65  and  _66
REMARK   29  A    between atoms: _69  and  _71
REMARK   30  A    between atoms: _71  and  _72
REMARK   31  A    between atoms: _71  and  _74
REMARK   32  A    between atoms: _74  and  _75
REMARK   33  A    between atoms: _75  and  _76
REMARK   34  A    between atoms: _76  and  _77
REMARK   35  A    between atoms: _77  and  _78
REMARK   36  A    between atoms: _83  and  _84
REMARK   37  A    between atoms: _89  and  _91
REMARK   38  A    between atoms: _91  and  _92
REMARK   39  A    between atoms: _91  and  _94
REMARK   40  A    between atoms: _94  and  _95
REMARK   41  A    between atoms: _95  and  _96
REMARK   42  A    between atoms: _96  and  _97
REMARK   43  A    between atoms: _106  and  _108
REMARK   44  A    between atoms: _108  and  _109
REMARK   45  A    between atoms: _108  and  _111
REMARK   46  A    between atoms: _111  and  _112
REMARK   47  A    between atoms: _112  and  _113
REMARK   48  A    between atoms: _116  and  _118
REMARK   49  A    between atoms: _118  and  _119
REMARK   50  A    between atoms: _122  and  _124
REMARK   51  A    between atoms: _124  and  _125
REMARK   52  A    between atoms: _124  and  _127
REMARK   53  A    between atoms: _127  and  _128
REMARK   54  A    between atoms: _131  and  _133
REMARK   55  A    between atoms: _133  and  _134
REMARK   56  A    between atoms: _136  and  _138
REMARK   57  A    between atoms: _138  and  _139
REMARK   58  A    between atoms: _142  and  _144
REMARK   59  A    between atoms: _144  and  _145
REMARK   60  A    between atoms: _144  and  _147
REMARK   61  A    between atoms: _147  and  _148
REMARK   62  A    between atoms: _148  and  _149
REMARK   63  A    between atoms: _149  and  _150
REMARK   64  A    between atoms: _159  and  _161
REMARK   65  A    between atoms: _161  and  _162
REMARK   66  A    between atoms: _161  and  _164
REMARK   67  A    between atoms: _164  and  _165
REMARK   68  A    between atoms: _168  and  _170
REMARK   69  A    between atoms: _170  and  _171
REMARK   70  A    between atoms: _170  and  _173
REMARK   71  A    between atoms: _173  and  _174
REMARK   72  A    between atoms: _177  and  _179
REMARK   73  A    between atoms: _179  and  _180
REMARK   74  A    between atoms: _179  and  _182
REMARK   75  A    between atoms: _182  and  _183
REMARK   76  A    between atoms: _183  and  _184
REMARK   77  A    between atoms: _184  and  _185
REMARK   78  A    between atoms: _185  and  _186
REMARK   79  A    between atoms: _190  and  _192
REMARK   80  A    between atoms: _192  and  _193
REMARK   81  A    between atoms: _192  and  _195
REMARK   82  A    between atoms: _195  and  _196
REMARK   83  A    between atoms: _201  and  _203
REMARK   84  A    between atoms: _203  and  _204
REMARK   85  A    between atoms: _206  and  _208
REMARK   86  A    between atoms: _208  and  _209
REMARK   87  A    between atoms: _208  and  _211
REMARK   88  A    between atoms: _211  and  _212
REMARK   89  A    between atoms: _215  and  _217
REMARK   90  A    between atoms: _217  and  _218
REMARK   91  A    between atoms: _217  and  _220
REMARK   92  A    between atoms: _220  and  _221
REMARK   93  A    between atoms: _224  and  _226
REMARK   94  A    between atoms: _226  and  _227
REMARK   95  A    between atoms: _226  and  _229
REMARK   96  A    between atoms: _229  and  _230
REMARK   97  A    between atoms: _233  and  _235
REMARK   98  A    between atoms: _235  and  _236
REMARK   99  A    between atoms: _235  and  _238
REMARK  100  A    between atoms: _238  and  _239
REMARK  101  A    between atoms: _239  and  _240
REMARK  102  A    between atoms: _240  and  _241
REMARK  103  A    between atoms: _250  and  _252
REMARK  104  A    between atoms: _252  and  _253
REMARK  105  A    between atoms: _255  and  _257
REMARK  106  A    between atoms: _257  and  _258
REMARK  107  A    between atoms: _257  and  _260
REMARK  108  A    between atoms: _260  and  _261
REMARK  109  A    between atoms: _264  and  _266
REMARK  110  A    between atoms: _266  and  _267
REMARK  111  A    between atoms: _266  and  _269
REMARK  112  A    between atoms: _269  and  _270
REMARK  113  A    between atoms: _272  and  _274
REMARK  114  A    between atoms: _274  and  _275
REMARK  115  A    between atoms: _274  and  _277
REMARK  116  A    between atoms: _277  and  _278
REMARK  117  A    between atoms: _282  and  MN_355
REMARK  118  A    between atoms: _283  and  _285
REMARK  119  A    between atoms: _285  and  _286
REMARK  120  A    between atoms: _289  and  _291
REMARK  121  A    between atoms: _291  and  _292
REMARK  122  A    between atoms: _291  and  _294
REMARK  123  A    between atoms: _294  and  _295
REMARK  124  A    between atoms: _300  and  _302
REMARK  125  A    between atoms: _302  and  _303
REMARK  126  A    between atoms: _302  and  _305
REMARK  127  A    between atoms: _305  and  _306
REMARK  128  A    between atoms: _306  and  _307
REMARK  129  A    between atoms: _309  and  _311
REMARK  130  A    between atoms: _311  and  _312
REMARK  131  A    between atoms: _311  and  _314
REMARK  132  A    between atoms: _314  and  _315
REMARK  133  A    between atoms: _315  and  _316
REMARK  134  A    between atoms: _316  and  _318
REMARK  135  A    between atoms: _318  and  MN_355
REMARK  136  A    between atoms: _319  and  _321
REMARK  137  A    between atoms: _321  and  _322
REMARK  138  A    between atoms: _321  and  _324
REMARK  139  A    between atoms: _324  and  _325
REMARK  140  A    between atoms: _327  and  _329
REMARK  141  A    between atoms: _329  and  _330
REMARK  142  A    between atoms: _329  and  _332
REMARK  143  A    between atoms: _332  and  _333
REMARK  144  A    between atoms: _336  and  _338
REMARK  145  A    between atoms: _338  and  _339
REMARK  146  A    between atoms: _338  and  _341
REMARK  147  A    between atoms: _341  and  _342
REMARK  148  A    between atoms: _342  and  _344
REMARK  149  A    between atoms: _344  and  MN_355
REMARK  150  A    between atoms: _345  and  _347
REMARK  151  A    between atoms: _347  and  _348
REMARK  152  A    between atoms: _347  and  _350
REMARK  153  A    between atoms: _350  and  _351
REMARK  154  A    between atoms: _351  and  _352
REMARK                            x       y       z     vdW  Elec       q    Type
REMARK                         _______ _______ _______ _____ _____    ______ ____
ROOT
ATOM      1  CA  GLU A   1     -18.835 -80.777   2.913  0.00  0.00    +0.134 C 
ENDROOT
BRANCH   1   2
ATOM      2  N   GLU A   1     -20.244 -80.579   2.591  0.00  0.00    -0.239 NA
ATOM      3  H   GLU A   1     -20.775 -81.350   2.137  0.00  0.00    +0.142 HD
ENDBRANCH   1   2
BRANCH   1   4
ATOM      4  C   GLU A   1     -17.873 -80.095   1.943  0.00  0.00    +0.224 C 
ATOM      5  O   GLU A   1     -16.662 -79.991   2.221  0.00  0.00    -0.287 OA
ENDBRANCH   1   4
BRANCH   1   6
ATOM      6  CB  GLU A   1     -18.519 -82.273   3.026  0.00  0.00    +0.037 C 
BRANCH   6   7
ATOM      7  CG  GLU A   1     -17.403 -82.634   3.979  0.00  0.00    +0.116 C 
BRANCH   7   8
ATOM      8  CD  GLU A   1     -17.207 -84.138   4.131  0.00  0.00    +0.365 C 
ATOM      9  OE2 GLU A   1     -16.333 -84.570   4.920  0.00  0.00    -0.246 OA
ATOM     10  OE1 GLU A   1     -17.906 -84.926   3.426  0.00  0.00    -0.246 OA
ENDBRANCH   7   8
ENDBRANCH   6   7
ENDBRANCH   1   6
TORSDOF 5
REMARK  Name = ../refined-set-2016/4uma/4uma_pocket.pdb
REMARK  154 active torsions:
REMARK  status: ('A' for Active; 'I' for Inactive)
REMARK    1  A    between atoms: _1  and  _3
REMARK    2  A    between atoms: _3  and  _4
REMARK    3  A    between atoms: _7  and  _8
REMARK    4  A    between atoms: _13  and  _15
REMARK    5  A    between atoms: _15  and  _16
REMARK    6  A    between atoms: _15  and  _18
REMARK    7  A    between atoms: _18  and  _19
REMARK    8  A    between atoms: _19  and  MN_355
REMARK    9  A    between atoms: _20  and  _22
REMARK   10  A    between atoms: _22  and  _23
REMARK   11  A    between atoms: _22  and  _25
REMARK   12  A    between atoms: _25  and  _26
REMARK   13  A    between atoms: _28  and  _30
REMARK   14  A    between atoms: _30  and  _31
REMARK   15  A    between atoms: _30  and  _33
REMARK   16  A    between atoms: _33  and  _34
REMARK   17  A    between atoms: _34  and  _35
REMARK   18  A    between atoms: _35  and  _36
REMARK   19  A    between atoms: _45  and  _47
REMARK   20  A    between atoms: _47  and  _48
REMARK   21  A    between atoms: _47  and  _50
REMARK   22  A    between atoms: _50  and  _51
REMARK   23  A    between atoms: _56  and  _57
REMARK   24  A    between atoms: _59  and  _61
REMARK   25  A    between atoms: _61  and  _62
REMARK   26  A    between atoms: _61  and  _64
REMARK   27  A    between atoms: _64  and  _65
REMARK   28  A    between atoms: _65  and  _66
REMARK   29  A    between atoms: _69  and  _71
REMARK   30  A    between atoms: _71  and  _72
REMARK   31  A    between atoms: _71  and  _74
REMARK   32  A    between atoms: _74  and  _75
REMARK   33  A    between atoms: _75  and  _76
REMARK   34  A    between atoms: _76  and  _77
REMARK   35  A    between atoms: _77  and  _78
REMARK   36  A    between atoms: _83  and  _84
REMARK   37  A    between atoms: _89  and  _91
REMARK   38  A    between atoms: _91  and  _92
REMARK   39  A    between atoms: _91  and  _94
REMARK   40  A    between atoms: _94  and  _95
REMARK   41  A    between atoms: _95  and  _96
REMARK   42  A    between atoms: _96  and  _97
REMARK   43  A    between atoms: _106  and  _108
REMARK   44  A    between atoms: _108  and  _109
REMARK   45  A    between atoms: _108  and  _111
REMARK   46  A    between atoms: _111  and  _112
REMARK   47  A    between atoms: _112  and  _113
REMARK   48  A    between atoms: _116  and  _118
REMARK   49  A    between atoms: _118  and  _119
REMARK   50  A    between atoms: _122  and  _124
REMARK   51  A    between atoms: _124  and  _125
REMARK   52  A    between atoms: _124  and  _127
REMARK   53  A    between atoms: _127  and  _128
REMARK   54  A    between atoms: _131  and  _133
REMARK   55  A    between atoms: _133  and  _134
REMARK   56  A    between atoms: _136  and  _138
REMARK   57  A    between atoms: _138  and  _139
REMARK   58  A    between atoms: _142  and  _144
REMARK   59  A    between atoms: _144  and  _145
REMARK   60  A    between atoms: _144  and  _147
REMARK   61  A    between atoms: _147  and  _148
REMARK   62  A    between atoms: _148  and  _149
REMARK   63  A    between atoms: _149  and  _150
REMARK   64  A    between atoms: _159  and  _161
REMARK   65  A    between atoms: _161  and  _162
REMARK   66  A    between atoms: _161  and  _164
REMARK   67  A    between atoms: _164  and  _165
REMARK   68  A    between atoms: _168  and  _170
REMARK   69  A    between atoms: _170  and  _171
REMARK   70  A    between atoms: _170  and  _173
REMARK   71  A    between atoms: _173  and  _174
REMARK   72  A    between atoms: _177  and  _179
REMARK   73  A    between atoms: _179  and  _180
REMARK   74  A    between atoms: _179  and  _182
REMARK   75  A    between atoms: _182  and  _183
REMARK   76  A    between atoms: _183  and  _184
REMARK   77  A    between atoms: _184  and  _185
REMARK   78  A    between atoms: _185  and  _186
REMARK   79  A    between atoms: _190  and  _192
REMARK   80  A    between atoms: _192  and  _193
REMARK   81  A    between atoms: _192  and  _195
REMARK   82  A    between atoms: _195  and  _196
REMARK   83  A    between atoms: _201  and  _203
REMARK   84  A    between atoms: _203  and  _204
REMARK   85  A    between atoms: _206  and  _208
REMARK   86  A    between atoms: _208  and  _209
REMARK   87  A    between atoms: _208  and  _211
REMARK   88  A    between atoms: _211  and  _212
REMARK   89  A    between atoms: _215  and  _217
REMARK   90  A    between atoms: _217  and  _218
REMARK   91  A    between atoms: _217  and  _220
REMARK   92  A    between atoms: _220  and  _221
REMARK   93  A    between atoms: _224  and  _226
REMARK   94  A    between atoms: _226  and  _227
REMARK   95  A    between atoms: _226  and  _229
REMARK   96  A    between atoms: _229  and  _230
REMARK   97  A    between atoms: _233  and  _235
REMARK   98  A    between atoms: _235  and  _236
REMARK   99  A    between atoms: _235  and  _238
REMARK  100  A    between atoms: _238  and  _239
REMARK  101  A    between atoms: _239  and  _240
REMARK  102  A    between atoms: _240  and  _241
REMARK  103  A    between atoms: _250  and  _252
REMARK  104  A    between atoms: _252  and  _253
REMARK  105  A    between atoms: _255  and  _257
REMARK  106  A    between atoms: _257  and  _258
REMARK  107  A    between atoms: _257  and  _260
REMARK  108  A    between atoms: _260  and  _261
REMARK  109  A    between atoms: _264  and  _266
REMARK  110  A    between atoms: _266  and  _267
REMARK  111  A    between atoms: _266  and  _269
REMARK  112  A    between atoms: _269  and  _270
REMARK  113  A    between atoms: _272  and  _274
REMARK  114  A    between atoms: _274  and  _275
REMARK  115  A    between atoms: _274  and  _277
REMARK  116  A    between atoms: _277  and  _278
REMARK  117  A    between atoms: _282  and  MN_355
REMARK  118  A    between atoms: _283  and  _285
REMARK  119  A    between atoms: _285  and  _286
REMARK  120  A    between atoms: _289  and  _291
REMARK  121  A    between atoms: _291  and  _292
REMARK  122  A    between atoms: _291  and  _294
REMARK  123  A    between atoms: _294  and  _295
REMARK  124  A    between atoms: _300  and  _302
REMARK  125  A    between atoms: _302  and  _303
REMARK  126  A    between atoms: _302  and  _305
REMARK  127  A    between atoms: _305  and  _306
REMARK  128  A    between atoms: _306  and  _307
REMARK  129  A    between atoms: _309  and  _311
REMARK  130  A    between atoms: _311  and  _312
REMARK  131  A    between atoms: _311  and  _314
REMARK  132  A    between atoms: _314  and  _315
REMARK  133  A    between atoms: _315  and  _316
REMARK  134  A    between atoms: _316  and  _318
REMARK  135  A    between atoms: _318  and  MN_355
REMARK  136  A    between atoms: _319  and  _321
REMARK  137  A    between atoms: _321  and  _322
REMARK  138  A    between atoms: _321  and  _324
REMARK  139  A    between atoms: _324  and  _325
REMARK  140  A    between atoms: _327  and  _329
REMARK  141  A    between atoms: _329  and  _330
REMARK  142  A    between atoms: _329  and  _332
REMARK  143  A    between atoms: _332  and  _333
REMARK  144  A    between atoms: _336  and  _338
REMARK  145  A    between atoms: _338  and  _339
REMARK  146  A    between atoms: _338  and  _341
REMARK  147  A    between atoms: _341  and  _342
REMARK  148  A    between atoms: _342  and  _344
REMARK  149  A    between atoms: _344  and  MN_355
REMARK  150  A    between atoms: _345  and  _347
REMARK  151  A    between atoms: _347  and  _348
REMARK  152  A    between atoms: _347  and  _350
REMARK  153  A    between atoms: _350  and  _351
REMARK  154  A    between atoms: _351  and  _352
REMARK                            x       y       z     vdW  Elec       q    Type
REMARK                         _______ _______ _______ _____ _____    ______ ____
ROOT
ATOM      1  O   HOH     1      -7.163 -87.406   6.462  0.00  0.00    +0.000 OA
ENDROOT
TORSDOF 0
REMARK  Name = ../refined-set-2016/4uma/4uma_pocket.pdb
REMARK  154 active torsions:
REMARK  status: ('A' for Active; 'I' for Inactive)
REMARK    1  A    between atoms: _1  and  _3
REMARK    2  A    between atoms: _3  and  _4
REMARK    3  A    between atoms: _7  and  _8
REMARK    4  A    between atoms: _13  and  _15
REMARK    5  A    between atoms: _15  and  _16
REMARK    6  A    between atoms: _15  and  _18
REMARK    7  A    between atoms: _18  and  _19
REMARK    8  A    between atoms: _19  and  MN_355
REMARK    9  A    between atoms: _20  and  _22
REMARK   10  A    between atoms: _22  and  _23
REMARK   11  A    between atoms: _22  and  _25
REMARK   12  A    between atoms: _25  and  _26
REMARK   13  A    between atoms: _28  and  _30
REMARK   14  A    between atoms: _30  and  _31
REMARK   15  A    between atoms: _30  and  _33
REMARK   16  A    between atoms: _33  and  _34
REMARK   17  A    between atoms: _34  and  _35
REMARK   18  A    between atoms: _35  and  _36
REMARK   19  A    between atoms: _45  and  _47
REMARK   20  A    between atoms: _47  and  _48
REMARK   21  A    between atoms: _47  and  _50
REMARK   22  A    between atoms: _50  and  _51
REMARK   23  A    between atoms: _56  and  _57
REMARK   24  A    between atoms: _59  and  _61
REMARK   25  A    between atoms: _61  and  _62
REMARK   26  A    between atoms: _61  and  _64
REMARK   27  A    between atoms: _64  and  _65
REMARK   28  A    between atoms: _65  and  _66
REMARK   29  A    between atoms: _69  and  _71
REMARK   30  A    between atoms: _71  and  _72
REMARK   31  A    between atoms: _71  and  _74
REMARK   32  A    between atoms: _74  and  _75
REMARK   33  A    between atoms: _75  and  _76
REMARK   34  A    between atoms: _76  and  _77
REMARK   35  A    between atoms: _77  and  _78
REMARK   36  A    between atoms: _83  and  _84
REMARK   37  A    between atoms: _89  and  _91
REMARK   38  A    between atoms: _91  and  _92
REMARK   39  A    between atoms: _91  and  _94
REMARK   40  A    between atoms: _94  and  _95
REMARK   41  A    between atoms: _95  and  _96
REMARK   42  A    between atoms: _96  and  _97
REMARK   43  A    between atoms: _106  and  _108
REMARK   44  A    between atoms: _108  and  _109
REMARK   45  A    between atoms: _108  and  _111
REMARK   46  A    between atoms: _111  and  _112
REMARK   47  A    between atoms: _112  and  _113
REMARK   48  A    between atoms: _116  and  _118
REMARK   49  A    between atoms: _118  and  _119
REMARK   50  A    between atoms: _122  and  _124
REMARK   51  A    between atoms: _124  and  _125
REMARK   52  A    between atoms: _124  and  _127
REMARK   53  A    between atoms: _127  and  _128
REMARK   54  A    between atoms: _131  and  _133
REMARK   55  A    between atoms: _133  and  _134
REMARK   56  A    between atoms: _136  and  _138
REMARK   57  A    between atoms: _138  and  _139
REMARK   58  A    between atoms: _142  and  _144
REMARK   59  A    between atoms: _144  and  _145
REMARK   60  A    between atoms: _144  and  _147
REMARK   61  A    between atoms: _147  and  _148
REMARK   62  A    between atoms: _148  and  _149
REMARK   63  A    between atoms: _149  and  _150
REMARK   64  A    between atoms: _159  and  _161
REMARK   65  A    between atoms: _161  and  _162
REMARK   66  A    between atoms: _161  and  _164
REMARK   67  A    between atoms: _164  and  _165
REMARK   68  A    between atoms: _168  and  _170
REMARK   69  A    between atoms: _170  and  _171
REMARK   70  A    between atoms: _170  and  _173
REMARK   71  A    between atoms: _173  and  _174
REMARK   72  A    between atoms: _177  and  _179
REMARK   73  A    between atoms: _179  and  _180
REMARK   74  A    between atoms: _179  and  _182
REMARK   75  A    between atoms: _182  and  _183
REMARK   76  A    between atoms: _183  and  _184
REMARK   77  A    between atoms: _184  and  _185
REMARK   78  A    between atoms: _185  and  _186
REMARK   79  A    between atoms: _190  and  _192
REMARK   80  A    between atoms: _192  and  _193
REMARK   81  A    between atoms: _192  and  _195
REMARK   82  A    between atoms: _195  and  _196
REMARK   83  A    between atoms: _201  and  _203
REMARK   84  A    between atoms: _203  and  _204
REMARK   85  A    between atoms: _206  and  _208
REMARK   86  A    between atoms: _208  and  _209
REMARK   87  A    between atoms: _208  and  _211
REMARK   88  A    between atoms: _211  and  _212
REMARK   89  A    between atoms: _215  and  _217
REMARK   90  A    between atoms: _217  and  _218
REMARK   91  A    between atoms: _217  and  _220
REMARK   92  A    between atoms: _220  and  _221
REMARK   93  A    between atoms: _224  and  _226
REMARK   94  A    between atoms: _226  and  _227
REMARK   95  A    between atoms: _226  and  _229
REMARK   96  A    between atoms: _229  and  _230
REMARK   97  A    between atoms: _233  and  _235
REMARK   98  A    between atoms: _235  and  _236
REMARK   99  A    between atoms: _235  and  _238
REMARK  100  A    between atoms: _238  and  _239
REMARK  101  A    between atoms: _239  and  _240
REMARK  102  A    between atoms: _240  and  _241
REMARK  103  A    between atoms: _250  and  _252
REMARK  104  A    between atoms: _252  and  _253
REMARK  105  A    between atoms: _255  and  _257
REMARK  106  A    between atoms: _257  and  _258
REMARK  107  A    between atoms: _257  and  _260
REMARK  108  A    between atoms: _260  and  _261
REMARK  109  A    between atoms: _264  and  _266
REMARK  110  A    between atoms: _266  and  _267
REMARK  111  A    between atoms: _266  and  _269
REMARK  112  A    between atoms: _269  and  _270
REMARK  113  A    between atoms: _272  and  _274
REMARK  114  A    between atoms: _274  and  _275
REMARK  115  A    between atoms: _274  and  _277
REMARK  116  A    between atoms: _277  and  _278
REMARK  117  A    between atoms: _282  and  MN_355
REMARK  118  A    between atoms: _283  and  _285
REMARK  119  A    between atoms: _285  and  _286
REMARK  120  A    between atoms: _289  and  _291
REMARK  121  A    between atoms: _291  and  _292
REMARK  122  A    between atoms: _291  and  _294
REMARK  123  A    between atoms: _294  and  _295
REMARK  124  A    between atoms: _300  and  _302
REMARK  125  A    between atoms: _302  and  _303
REMARK  126  A    between atoms: _302  and  _305
REMARK  127  A    between atoms: _305  and  _306
REMARK  128  A    between atoms: _306  and  _307
REMARK  129  A    between atoms: _309  and  _311
REMARK  130  A    between atoms: _311  and  _312
REMARK  131  A    between atoms: _311  and  _314
REMARK  132  A    between atoms: _314  and  _315
REMARK  133  A    between atoms: _315  and  _316
REMARK  134  A    between atoms: _316  and  _318
REMARK  135  A    between atoms: _318  and  MN_355
REMARK  136  A    between atoms: _319  and  _321
REMARK  137  A    between atoms: _321  and  _322
REMARK  138  A    between atoms: _321  and  _324
REMARK  139  A    between atoms: _324  and  _325
REMARK  140  A    between atoms: _327  and  _329
REMARK  141  A    between atoms: _329  and  _330
REMARK  142  A    between atoms: _329  and  _332
REMARK  143  A    between atoms: _332  and  _333
REMARK  144  A    between atoms: _336  and  _338
REMARK  145  A    between atoms: _338  and  _339
REMARK  146  A    between atoms: _338  and  _341
REMARK  147  A    between atoms: _341  and  _342
REMARK  148  A    between atoms: _342  and  _344
REMARK  149  A    between atoms: _344  and  MN_355
REMARK  150  A    between atoms: _345  and  _347
REMARK  151  A    between atoms: _347  and  _348
REMARK  152  A    between atoms: _347  and  _350
REMARK  153  A    between atoms: _350  and  _351
REMARK  154  A    between atoms: _351  and  _352
REMARK                            x       y       z     vdW  Elec       q    Type
REMARK                         _______ _______ _______ _____ _____    ______ ____
ROOT
ATOM      1  O   HOH     1     -13.452 -87.180   8.427  0.00  0.00    +0.000 OA
ENDROOT
TORSDOF 0
REMARK  Name = ../refined-set-2016/4uma/4uma_pocket.pdb
REMARK  154 active torsions:
REMARK  status: ('A' for Active; 'I' for Inactive)
REMARK    1  A    between atoms: _1  and  _3
REMARK    2  A    between atoms: _3  and  _4
REMARK    3  A    between atoms: _7  and  _8
REMARK    4  A    between atoms: _13  and  _15
REMARK    5  A    between atoms: _15  and  _16
REMARK    6  A    between atoms: _15  and  _18
REMARK    7  A    between atoms: _18  and  _19
REMARK    8  A    between atoms: _19  and  MN_355
REMARK    9  A    between atoms: _20  and  _22
REMARK   10  A    between atoms: _22  and  _23
REMARK   11  A    between atoms: _22  and  _25
REMARK   12  A    between atoms: _25  and  _26
REMARK   13  A    between atoms: _28  and  _30
REMARK   14  A    between atoms: _30  and  _31
REMARK   15  A    between atoms: _30  and  _33
REMARK   16  A    between atoms: _33  and  _34
REMARK   17  A    between atoms: _34  and  _35
REMARK   18  A    between atoms: _35  and  _36
REMARK   19  A    between atoms: _45  and  _47
REMARK   20  A    between atoms: _47  and  _48
REMARK   21  A    between atoms: _47  and  _50
REMARK   22  A    between atoms: _50  and  _51
REMARK   23  A    between atoms: _56  and  _57
REMARK   24  A    between atoms: _59  and  _61
REMARK   25  A    between atoms: _61  and  _62
REMARK   26  A    between atoms: _61  and  _64
REMARK   27  A    between atoms: _64  and  _65
REMARK   28  A    between atoms: _65  and  _66
REMARK   29  A    between atoms: _69  and  _71
REMARK   30  A    between atoms: _71  and  _72
REMARK   31  A    between atoms: _71  and  _74
REMARK   32  A    between atoms: _74  and  _75
REMARK   33  A    between atoms: _75  and  _76
REMARK   34  A    between atoms: _76  and  _77
REMARK   35  A    between atoms: _77  and  _78
REMARK   36  A    between atoms: _83  and  _84
REMARK   37  A    between atoms: _89  and  _91
REMARK   38  A    between atoms: _91  and  _92
REMARK   39  A    between atoms: _91  and  _94
REMARK   40  A    between atoms: _94  and  _95
REMARK   41  A    between atoms: _95  and  _96
REMARK   42  A    between atoms: _96  and  _97
REMARK   43  A    between atoms: _106  and  _108
REMARK   44  A    between atoms: _108  and  _109
REMARK   45  A    between atoms: _108  and  _111
REMARK   46  A    between atoms: _111  and  _112
REMARK   47  A    between atoms: _112  and  _113
REMARK   48  A    between atoms: _116  and  _118
REMARK   49  A    between atoms: _118  and  _119
REMARK   50  A    between atoms: _122  and  _124
REMARK   51  A    between atoms: _124  and  _125
REMARK   52  A    between atoms: _124  and  _127
REMARK   53  A    between atoms: _127  and  _128
REMARK   54  A    between atoms: _131  and  _133
REMARK   55  A    between atoms: _133  and  _134
REMARK   56  A    between atoms: _136  and  _138
REMARK   57  A    between atoms: _138  and  _139
REMARK   58  A    between atoms: _142  and  _144
REMARK   59  A    between atoms: _144  and  _145
REMARK   60  A    between atoms: _144  and  _147
REMARK   61  A    between atoms: _147  and  _148
REMARK   62  A    between atoms: _148  and  _149
REMARK   63  A    between atoms: _149  and  _150
REMARK   64  A    between atoms: _159  and  _161
REMARK   65  A    between atoms: _161  and  _162
REMARK   66  A    between atoms: _161  and  _164
REMARK   67  A    between atoms: _164  and  _165
REMARK   68  A    between atoms: _168  and  _170
REMARK   69  A    between atoms: _170  and  _171
REMARK   70  A    between atoms: _170  and  _173
REMARK   71  A    between atoms: _173  and  _174
REMARK   72  A    between atoms: _177  and  _179
REMARK   73  A    between atoms: _179  and  _180
REMARK   74  A    between atoms: _179  and  _182
REMARK   75  A    between atoms: _182  and  _183
REMARK   76  A    between atoms: _183  and  _184
REMARK   77  A    between atoms: _184  and  _185
REMARK   78  A    between atoms: _185  and  _186
REMARK   79  A    between atoms: _190  and  _192
REMARK   80  A    between atoms: _192  and  _193
REMARK   81  A    between atoms: _192  and  _195
REMARK   82  A    between atoms: _195  and  _196
REMARK   83  A    between atoms: _201  and  _203
REMARK   84  A    between atoms: _203  and  _204
REMARK   85  A    between atoms: _206  and  _208
REMARK   86  A    between atoms: _208  and  _209
REMARK   87  A    between atoms: _208  and  _211
REMARK   88  A    between atoms: _211  and  _212
REMARK   89  A    between atoms: _215  and  _217
REMARK   90  A    between atoms: _217  and  _218
REMARK   91  A    between atoms: _217  and  _220
REMARK   92  A    between atoms: _220  and  _221
REMARK   93  A    between atoms: _224  and  _226
REMARK   94  A    between atoms: _226  and  _227
REMARK   95  A    between atoms: _226  and  _229
REMARK   96  A    between atoms: _229  and  _230
REMARK   97  A    between atoms: _233  and  _235
REMARK   98  A    between atoms: _235  and  _236
REMARK   99  A    between atoms: _235  and  _238
REMARK  100  A    between atoms: _238  and  _239
REMARK  101  A    between atoms: _239  and  _240
REMARK  102  A    between atoms: _240  and  _241
REMARK  103  A    between atoms: _250  and  _252
REMARK  104  A    between atoms: _252  and  _253
REMARK  105  A    between atoms: _255  and  _257
REMARK  106  A    between atoms: _257  and  _258
REMARK  107  A    between atoms: _257  and  _260
REMARK  108  A    between atoms: _260  and  _261
REMARK  109  A    between atoms: _264  and  _266
REMARK  110  A    between atoms: _266  and  _267
REMARK  111  A    between atoms: _266  and  _269
REMARK  112  A    between atoms: _269  and  _270
REMARK  113  A    between atoms: _272  and  _274
REMARK  114  A    between atoms: _274  and  _275
REMARK  115  A    between atoms: _274  and  _277
REMARK  116  A    between atoms: _277  and  _278
REMARK  117  A    between atoms: _282  and  MN_355
REMARK  118  A    between atoms: _283  and  _285
REMARK  119  A    between atoms: _285  and  _286
REMARK  120  A    between atoms: _289  and  _291
REMARK  121  A    between atoms: _291  and  _292
REMARK  122  A    between atoms: _291  and  _294
REMARK  123  A    between atoms: _294  and  _295
REMARK  124  A    between atoms: _300  and  _302
REMARK  125  A    between atoms: _302  and  _303
REMARK  126  A    between atoms: _302  and  _305
REMARK  127  A    between atoms: _305  and  _306
REMARK  128  A    between atoms: _306  and  _307
REMARK  129  A    between atoms: _309  and  _311
REMARK  130  A    between atoms: _311  and  _312
REMARK  131  A    between atoms: _311  and  _314
REMARK  132  A    between atoms: _314  and  _315
REMARK  133  A    between atoms: _315  and  _316
REMARK  134  A    between atoms: _316  and  _318
REMARK  135  A    between atoms: _318  and  MN_355
REMARK  136  A    between atoms: _319  and  _321
REMARK  137  A    between atoms: _321  and  _322
REMARK  138  A    between atoms: _321  and  _324
REMARK  139  A    between atoms: _324  and  _325
REMARK  140  A    between atoms: _327  and  _329
REMARK  141  A    between atoms: _329  and  _330
REMARK  142  A    between atoms: _329  and  _332
REMARK  143  A    between atoms: _332  and  _333
REMARK  144  A    between atoms: _336  and  _338
REMARK  145  A    between atoms: _338  and  _339
REMARK  146  A    between atoms: _338  and  _341
REMARK  147  A    between atoms: _341  and  _342
REMARK  148  A    between atoms: _342  and  _344
REMARK  149  A    between atoms: _344  and  MN_355
REMARK  150  A    between atoms: _345  and  _347
REMARK  151  A    between atoms: _347  and  _348
REMARK  152  A    between atoms: _347  and  _350
REMARK  153  A    between atoms: _350  and  _351
REMARK  154  A    between atoms: _351  and  _352
REMARK                            x       y       z     vdW  Elec       q    Type
REMARK                         _______ _______ _______ _____ _____    ______ ____
ROOT
ATOM      1  O   HOH     1      -8.904 -88.482   8.266  0.00  0.00    +0.000 OA
ENDROOT
TORSDOF 0
REMARK  Name = ../refined-set-2016/4uma/4uma_pocket.pdb
REMARK  154 active torsions:
REMARK  status: ('A' for Active; 'I' for Inactive)
REMARK    1  A    between atoms: _1  and  _3
REMARK    2  A    between atoms: _3  and  _4
REMARK    3  A    between atoms: _7  and  _8
REMARK    4  A    between atoms: _13  and  _15
REMARK    5  A    between atoms: _15  and  _16
REMARK    6  A    between atoms: _15  and  _18
REMARK    7  A    between atoms: _18  and  _19
REMARK    8  A    between atoms: _19  and  MN_355
REMARK    9  A    between atoms: _20  and  _22
REMARK   10  A    between atoms: _22  and  _23
REMARK   11  A    between atoms: _22  and  _25
REMARK   12  A    between atoms: _25  and  _26
REMARK   13  A    between atoms: _28  and  _30
REMARK   14  A    between atoms: _30  and  _31
REMARK   15  A    between atoms: _30  and  _33
REMARK   16  A    between atoms: _33  and  _34
REMARK   17  A    between atoms: _34  and  _35
REMARK   18  A    between atoms: _35  and  _36
REMARK   19  A    between atoms: _45  and  _47
REMARK   20  A    between atoms: _47  and  _48
REMARK   21  A    between atoms: _47  and  _50
REMARK   22  A    between atoms: _50  and  _51
REMARK   23  A    between atoms: _56  and  _57
REMARK   24  A    between atoms: _59  and  _61
REMARK   25  A    between atoms: _61  and  _62
REMARK   26  A    between atoms: _61  and  _64
REMARK   27  A    between atoms: _64  and  _65
REMARK   28  A    between atoms: _65  and  _66
REMARK   29  A    between atoms: _69  and  _71
REMARK   30  A    between atoms: _71  and  _72
REMARK   31  A    between atoms: _71  and  _74
REMARK   32  A    between atoms: _74  and  _75
REMARK   33  A    between atoms: _75  and  _76
REMARK   34  A    between atoms: _76  and  _77
REMARK   35  A    between atoms: _77  and  _78
REMARK   36  A    between atoms: _83  and  _84
REMARK   37  A    between atoms: _89  and  _91
REMARK   38  A    between atoms: _91  and  _92
REMARK   39  A    between atoms: _91  and  _94
REMARK   40  A    between atoms: _94  and  _95
REMARK   41  A    between atoms: _95  and  _96
REMARK   42  A    between atoms: _96  and  _97
REMARK   43  A    between atoms: _106  and  _108
REMARK   44  A    between atoms: _108  and  _109
REMARK   45  A    between atoms: _108  and  _111
REMARK   46  A    between atoms: _111  and  _112
REMARK   47  A    between atoms: _112  and  _113
REMARK   48  A    between atoms: _116  and  _118
REMARK   49  A    between atoms: _118  and  _119
REMARK   50  A    between atoms: _122  and  _124
REMARK   51  A    between atoms: _124  and  _125
REMARK   52  A    between atoms: _124  and  _127
REMARK   53  A    between atoms: _127  and  _128
REMARK   54  A    between atoms: _131  and  _133
REMARK   55  A    between atoms: _133  and  _134
REMARK   56  A    between atoms: _136  and  _138
REMARK   57  A    between atoms: _138  and  _139
REMARK   58  A    between atoms: _142  and  _144
REMARK   59  A    between atoms: _144  and  _145
REMARK   60  A    between atoms: _144  and  _147
REMARK   61  A    between atoms: _147  and  _148
REMARK   62  A    between atoms: _148  and  _149
REMARK   63  A    between atoms: _149  and  _150
REMARK   64  A    between atoms: _159  and  _161
REMARK   65  A    between atoms: _161  and  _162
REMARK   66  A    between atoms: _161  and  _164
REMARK   67  A    between atoms: _164  and  _165
REMARK   68  A    between atoms: _168  and  _170
REMARK   69  A    between atoms: _170  and  _171
REMARK   70  A    between atoms: _170  and  _173
REMARK   71  A    between atoms: _173  and  _174
REMARK   72  A    between atoms: _177  and  _179
REMARK   73  A    between atoms: _179  and  _180
REMARK   74  A    between atoms: _179  and  _182
REMARK   75  A    between atoms: _182  and  _183
REMARK   76  A    between atoms: _183  and  _184
REMARK   77  A    between atoms: _184  and  _185
REMARK   78  A    between atoms: _185  and  _186
REMARK   79  A    between atoms: _190  and  _192
REMARK   80  A    between atoms: _192  and  _193
REMARK   81  A    between atoms: _192  and  _195
REMARK   82  A    between atoms: _195  and  _196
REMARK   83  A    between atoms: _201  and  _203
REMARK   84  A    between atoms: _203  and  _204
REMARK   85  A    between atoms: _206  and  _208
REMARK   86  A    between atoms: _208  and  _209
REMARK   87  A    between atoms: _208  and  _211
REMARK   88  A    between atoms: _211  and  _212
REMARK   89  A    between atoms: _215  and  _217
REMARK   90  A    between atoms: _217  and  _218
REMARK   91  A    between atoms: _217  and  _220
REMARK   92  A    between atoms: _220  and  _221
REMARK   93  A    between atoms: _224  and  _226
REMARK   94  A    between atoms: _226  and  _227
REMARK   95  A    between atoms: _226  and  _229
REMARK   96  A    between atoms: _229  and  _230
REMARK   97  A    between atoms: _233  and  _235
REMARK   98  A    between atoms: _235  and  _236
REMARK   99  A    between atoms: _235  and  _238
REMARK  100  A    between atoms: _238  and  _239
REMARK  101  A    between atoms: _239  and  _240
REMARK  102  A    between atoms: _240  and  _241
REMARK  103  A    between atoms: _250  and  _252
REMARK  104  A    between atoms: _252  and  _253
REMARK  105  A    between atoms: _255  and  _257
REMARK  106  A    between atoms: _257  and  _258
REMARK  107  A    between atoms: _257  and  _260
REMARK  108  A    between atoms: _260  and  _261
REMARK  109  A    between atoms: _264  and  _266
REMARK  110  A    between atoms: _266  and  _267
REMARK  111  A    between atoms: _266  and  _269
REMARK  112  A    between atoms: _269  and  _270
REMARK  113  A    between atoms: _272  and  _274
REMARK  114  A    between atoms: _274  and  _275
REMARK  115  A    between atoms: _274  and  _277
REMARK  116  A    between atoms: _277  and  _278
REMARK  117  A    between atoms: _282  and  MN_355
REMARK  118  A    between atoms: _283  and  _285
REMARK  119  A    between atoms: _285  and  _286
REMARK  120  A    between atoms: _289  and  _291
REMARK  121  A    between atoms: _291  and  _292
REMARK  122  A    between atoms: _291  and  _294
REMARK  123  A    between atoms: _294  and  _295
REMARK  124  A    between atoms: _300  and  _302
REMARK  125  A    between atoms: _302  and  _303
REMARK  126  A    between atoms: _302  and  _305
REMARK  127  A    between atoms: _305  and  _306
REMARK  128  A    between atoms: _306  and  _307
REMARK  129  A    between atoms: _309  and  _311
REMARK  130  A    between atoms: _311  and  _312
REMARK  131  A    between atoms: _311  and  _314
REMARK  132  A    between atoms: _314  and  _315
REMARK  133  A    between atoms: _315  and  _316
REMARK  134  A    between atoms: _316  and  _318
REMARK  135  A    between atoms: _318  and  MN_355
REMARK  136  A    between atoms: _319  and  _321
REMARK  137  A    between atoms: _321  and  _322
REMARK  138  A    between atoms: _321  and  _324
REMARK  139  A    between atoms: _324  and  _325
REMARK  140  A    between atoms: _327  and  _329
REMARK  141  A    between atoms: _329  and  _330
REMARK  142  A    between atoms: _329  and  _332
REMARK  143  A    between atoms: _332  and  _333
REMARK  144  A    between atoms: _336  and  _338
REMARK  145  A    between atoms: _338  and  _339
REMARK  146  A    between atoms: _338  and  _341
REMARK  147  A    between atoms: _341  and  _342
REMARK  148  A    between atoms: _342  and  _344
REMARK  149  A    between atoms: _344  and  MN_355
REMARK  150  A    between atoms: _345  and  _347
REMARK  151  A    between atoms: _347  and  _348
REMARK  152  A    between atoms: _347  and  _350
REMARK  153  A    between atoms: _350  and  _351
REMARK  154  A    between atoms: _351  and  _352
REMARK                            x       y       z     vdW  Elec       q    Type
REMARK                         _______ _______ _______ _____ _____    ______ ____
ROOT
ATOM      1  O   HOH     1      -1.922 -90.019  -0.638  0.00  0.00    +0.000 OA
ENDROOT
TORSDOF 0
REMARK  Name = ../refined-set-2016/4uma/4uma_pocket.pdb
REMARK  154 active torsions:
REMARK  status: ('A' for Active; 'I' for Inactive)
REMARK    1  A    between atoms: _1  and  _3
REMARK    2  A    between atoms: _3  and  _4
REMARK    3  A    between atoms: _7  and  _8
REMARK    4  A    between atoms: _13  and  _15
REMARK    5  A    between atoms: _15  and  _16
REMARK    6  A    between atoms: _15  and  _18
REMARK    7  A    between atoms: _18  and  _19
REMARK    8  A    between atoms: _19  and  MN_355
REMARK    9  A    between atoms: _20  and  _22
REMARK   10  A    between atoms: _22  and  _23
REMARK   11  A    between atoms: _22  and  _25
REMARK   12  A    between atoms: _25  and  _26
REMARK   13  A    between atoms: _28  and  _30
REMARK   14  A    between atoms: _30  and  _31
REMARK   15  A    between atoms: _30  and  _33
REMARK   16  A    between atoms: _33  and  _34
REMARK   17  A    between atoms: _34  and  _35
REMARK   18  A    between atoms: _35  and  _36
REMARK   19  A    between atoms: _45  and  _47
REMARK   20  A    between atoms: _47  and  _48
REMARK   21  A    between atoms: _47  and  _50
REMARK   22  A    between atoms: _50  and  _51
REMARK   23  A    between atoms: _56  and  _57
REMARK   24  A    between atoms: _59  and  _61
REMARK   25  A    between atoms: _61  and  _62
REMARK   26  A    between atoms: _61  and  _64
REMARK   27  A    between atoms: _64  and  _65
REMARK   28  A    between atoms: _65  and  _66
REMARK   29  A    between atoms: _69  and  _71
REMARK   30  A    between atoms: _71  and  _72
REMARK   31  A    between atoms: _71  and  _74
REMARK   32  A    between atoms: _74  and  _75
REMARK   33  A    between atoms: _75  and  _76
REMARK   34  A    between atoms: _76  and  _77
REMARK   35  A    between atoms: _77  and  _78
REMARK   36  A    between atoms: _83  and  _84
REMARK   37  A    between atoms: _89  and  _91
REMARK   38  A    between atoms: _91  and  _92
REMARK   39  A    between atoms: _91  and  _94
REMARK   40  A    between atoms: _94  and  _95
REMARK   41  A    between atoms: _95  and  _96
REMARK   42  A    between atoms: _96  and  _97
REMARK   43  A    between atoms: _106  and  _108
REMARK   44  A    between atoms: _108  and  _109
REMARK   45  A    between atoms: _108  and  _111
REMARK   46  A    between atoms: _111  and  _112
REMARK   47  A    between atoms: _112  and  _113
REMARK   48  A    between atoms: _116  and  _118
REMARK   49  A    between atoms: _118  and  _119
REMARK   50  A    between atoms: _122  and  _124
REMARK   51  A    between atoms: _124  and  _125
REMARK   52  A    between atoms: _124  and  _127
REMARK   53  A    between atoms: _127  and  _128
REMARK   54  A    between atoms: _131  and  _133
REMARK   55  A    between atoms: _133  and  _134
REMARK   56  A    between atoms: _136  and  _138
REMARK   57  A    between atoms: _138  and  _139
REMARK   58  A    between atoms: _142  and  _144
REMARK   59  A    between atoms: _144  and  _145
REMARK   60  A    between atoms: _144  and  _147
REMARK   61  A    between atoms: _147  and  _148
REMARK   62  A    between atoms: _148  and  _149
REMARK   63  A    between atoms: _149  and  _150
REMARK   64  A    between atoms: _159  and  _161
REMARK   65  A    between atoms: _161  and  _162
REMARK   66  A    between atoms: _161  and  _164
REMARK   67  A    between atoms: _164  and  _165
REMARK   68  A    between atoms: _168  and  _170
REMARK   69  A    between atoms: _170  and  _171
REMARK   70  A    between atoms: _170  and  _173
REMARK   71  A    between atoms: _173  and  _174
REMARK   72  A    between atoms: _177  and  _179
REMARK   73  A    between atoms: _179  and  _180
REMARK   74  A    between atoms: _179  and  _182
REMARK   75  A    between atoms: _182  and  _183
REMARK   76  A    between atoms: _183  and  _184
REMARK   77  A    between atoms: _184  and  _185
REMARK   78  A    between atoms: _185  and  _186
REMARK   79  A    between atoms: _190  and  _192
REMARK   80  A    between atoms: _192  and  _193
REMARK   81  A    between atoms: _192  and  _195
REMARK   82  A    between atoms: _195  and  _196
REMARK   83  A    between atoms: _201  and  _203
REMARK   84  A    between atoms: _203  and  _204
REMARK   85  A    between atoms: _206  and  _208
REMARK   86  A    between atoms: _208  and  _209
REMARK   87  A    between atoms: _208  and  _211
REMARK   88  A    between atoms: _211  and  _212
REMARK   89  A    between atoms: _215  and  _217
REMARK   90  A    between atoms: _217  and  _218
REMARK   91  A    between atoms: _217  and  _220
REMARK   92  A    between atoms: _220  and  _221
REMARK   93  A    between atoms: _224  and  _226
REMARK   94  A    between atoms: _226  and  _227
REMARK   95  A    between atoms: _226  and  _229
REMARK   96  A    between atoms: _229  and  _230
REMARK   97  A    between atoms: _233  and  _235
REMARK   98  A    between atoms: _235  and  _236
REMARK   99  A    between atoms: _235  and  _238
REMARK  100  A    between atoms: _238  and  _239
REMARK  101  A    between atoms: _239  and  _240
REMARK  102  A    between atoms: _240  and  _241
REMARK  103  A    between atoms: _250  and  _252
REMARK  104  A    between atoms: _252  and  _253
REMARK  105  A    between atoms: _255  and  _257
REMARK  106  A    between atoms: _257  and  _258
REMARK  107  A    between atoms: _257  and  _260
REMARK  108  A    between atoms: _260  and  _261
REMARK  109  A    between atoms: _264  and  _266
REMARK  110  A    between atoms: _266  and  _267
REMARK  111  A    between atoms: _266  and  _269
REMARK  112  A    between atoms: _269  and  _270
REMARK  113  A    between atoms: _272  and  _274
REMARK  114  A    between atoms: _274  and  _275
REMARK  115  A    between atoms: _274  and  _277
REMARK  116  A    between atoms: _277  and  _278
REMARK  117  A    between atoms: _282  and  MN_355
REMARK  118  A    between atoms: _283  and  _285
REMARK  119  A    between atoms: _285  and  _286
REMARK  120  A    between atoms: _289  and  _291
REMARK  121  A    between atoms: _291  and  _292
REMARK  122  A    between atoms: _291  and  _294
REMARK  123  A    between atoms: _294  and  _295
REMARK  124  A    between atoms: _300  and  _302
REMARK  125  A    between atoms: _302  and  _303
REMARK  126  A    between atoms: _302  and  _305
REMARK  127  A    between atoms: _305  and  _306
REMARK  128  A    between atoms: _306  and  _307
REMARK  129  A    between atoms: _309  and  _311
REMARK  130  A    between atoms: _311  and  _312
REMARK  131  A    between atoms: _311  and  _314
REMARK  132  A    between atoms: _314  and  _315
REMARK  133  A    between atoms: _315  and  _316
REMARK  134  A    between atoms: _316  and  _318
REMARK  135  A    between atoms: _318  and  MN_355
REMARK  136  A    between atoms: _319  and  _321
REMARK  137  A    between atoms: _321  and  _322
REMARK  138  A    between atoms: _321  and  _324
REMARK  139  A    between atoms: _324  and  _325
REMARK  140  A    between atoms: _327  and  _329
REMARK  141  A    between atoms: _329  and  _330
REMARK  142  A    between atoms: _329  and  _332
REMARK  143  A    between atoms: _332  and  _333
REMARK  144  A    between atoms: _336  and  _338
REMARK  145  A    between atoms: _338  and  _339
REMARK  146  A    between atoms: _338  and  _341
REMARK  147  A    between atoms: _341  and  _342
REMARK  148  A    between atoms: _342  and  _344
REMARK  149  A    between atoms: _344  and  MN_355
REMARK  150  A    between atoms: _345  and  _347
REMARK  151  A    between atoms: _347  and  _348
REMARK  152  A    between atoms: _347  and  _350
REMARK  153  A    between atoms: _350  and  _351
REMARK  154  A    between atoms: _351  and  _352
REMARK                            x       y       z     vdW  Elec       q    Type
REMARK                         _______ _______ _______ _____ _____    ______ ____
ROOT
ATOM      1  O   HOH     1      -6.058 -86.912  -2.678  0.00  0.00    +0.000 OA
ENDROOT
TORSDOF 0
REMARK  Name = ../refined-set-2016/4uma/4uma_pocket.pdb
REMARK  154 active torsions:
REMARK  status: ('A' for Active; 'I' for Inactive)
REMARK    1  A    between atoms: _1  and  _3
REMARK    2  A    between atoms: _3  and  _4
REMARK    3  A    between atoms: _7  and  _8
REMARK    4  A    between atoms: _13  and  _15
REMARK    5  A    between atoms: _15  and  _16
REMARK    6  A    between atoms: _15  and  _18
REMARK    7  A    between atoms: _18  and  _19
REMARK    8  A    between atoms: _19  and  MN_355
REMARK    9  A    between atoms: _20  and  _22
REMARK   10  A    between atoms: _22  and  _23
REMARK   11  A    between atoms: _22  and  _25
REMARK   12  A    between atoms: _25  and  _26
REMARK   13  A    between atoms: _28  and  _30
REMARK   14  A    between atoms: _30  and  _31
REMARK   15  A    between atoms: _30  and  _33
REMARK   16  A    between atoms: _33  and  _34
REMARK   17  A    between atoms: _34  and  _35
REMARK   18  A    between atoms: _35  and  _36
REMARK   19  A    between atoms: _45  and  _47
REMARK   20  A    between atoms: _47  and  _48
REMARK   21  A    between atoms: _47  and  _50
REMARK   22  A    between atoms: _50  and  _51
REMARK   23  A    between atoms: _56  and  _57
REMARK   24  A    between atoms: _59  and  _61
REMARK   25  A    between atoms: _61  and  _62
REMARK   26  A    between atoms: _61  and  _64
REMARK   27  A    between atoms: _64  and  _65
REMARK   28  A    between atoms: _65  and  _66
REMARK   29  A    between atoms: _69  and  _71
REMARK   30  A    between atoms: _71  and  _72
REMARK   31  A    between atoms: _71  and  _74
REMARK   32  A    between atoms: _74  and  _75
REMARK   33  A    between atoms: _75  and  _76
REMARK   34  A    between atoms: _76  and  _77
REMARK   35  A    between atoms: _77  and  _78
REMARK   36  A    between atoms: _83  and  _84
REMARK   37  A    between atoms: _89  and  _91
REMARK   38  A    between atoms: _91  and  _92
REMARK   39  A    between atoms: _91  and  _94
REMARK   40  A    between atoms: _94  and  _95
REMARK   41  A    between atoms: _95  and  _96
REMARK   42  A    between atoms: _96  and  _97
REMARK   43  A    between atoms: _106  and  _108
REMARK   44  A    between atoms: _108  and  _109
REMARK   45  A    between atoms: _108  and  _111
REMARK   46  A    between atoms: _111  and  _112
REMARK   47  A    between atoms: _112  and  _113
REMARK   48  A    between atoms: _116  and  _118
REMARK   49  A    between atoms: _118  and  _119
REMARK   50  A    between atoms: _122  and  _124
REMARK   51  A    between atoms: _124  and  _125
REMARK   52  A    between atoms: _124  and  _127
REMARK   53  A    between atoms: _127  and  _128
REMARK   54  A    between atoms: _131  and  _133
REMARK   55  A    between atoms: _133  and  _134
REMARK   56  A    between atoms: _136  and  _138
REMARK   57  A    between atoms: _138  and  _139
REMARK   58  A    between atoms: _142  and  _144
REMARK   59  A    between atoms: _144  and  _145
REMARK   60  A    between atoms: _144  and  _147
REMARK   61  A    between atoms: _147  and  _148
REMARK   62  A    between atoms: _148  and  _149
REMARK   63  A    between atoms: _149  and  _150
REMARK   64  A    between atoms: _159  and  _161
REMARK   65  A    between atoms: _161  and  _162
REMARK   66  A    between atoms: _161  and  _164
REMARK   67  A    between atoms: _164  and  _165
REMARK   68  A    between atoms: _168  and  _170
REMARK   69  A    between atoms: _170  and  _171
REMARK   70  A    between atoms: _170  and  _173
REMARK   71  A    between atoms: _173  and  _174
REMARK   72  A    between atoms: _177  and  _179
REMARK   73  A    between atoms: _179  and  _180
REMARK   74  A    between atoms: _179  and  _182
REMARK   75  A    between atoms: _182  and  _183
REMARK   76  A    between atoms: _183  and  _184
REMARK   77  A    between atoms: _184  and  _185
REMARK   78  A    between atoms: _185  and  _186
REMARK   79  A    between atoms: _190  and  _192
REMARK   80  A    between atoms: _192  and  _193
REMARK   81  A    between atoms: _192  and  _195
REMARK   82  A    between atoms: _195  and  _196
REMARK   83  A    between atoms: _201  and  _203
REMARK   84  A    between atoms: _203  and  _204
REMARK   85  A    between atoms: _206  and  _208
REMARK   86  A    between atoms: _208  and  _209
REMARK   87  A    between atoms: _208  and  _211
REMARK   88  A    between atoms: _211  and  _212
REMARK   89  A    between atoms: _215  and  _217
REMARK   90  A    between atoms: _217  and  _218
REMARK   91  A    between atoms: _217  and  _220
REMARK   92  A    between atoms: _220  and  _221
REMARK   93  A    between atoms: _224  and  _226
REMARK   94  A    between atoms: _226  and  _227
REMARK   95  A    between atoms: _226  and  _229
REMARK   96  A    between atoms: _229  and  _230
REMARK   97  A    between atoms: _233  and  _235
REMARK   98  A    between atoms: _235  and  _236
REMARK   99  A    between atoms: _235  and  _238
REMARK  100  A    between atoms: _238  and  _239
REMARK  101  A    between atoms: _239  and  _240
REMARK  102  A    between atoms: _240  and  _241
REMARK  103  A    between atoms: _250  and  _252
REMARK  104  A    between atoms: _252  and  _253
REMARK  105  A    between atoms: _255  and  _257
REMARK  106  A    between atoms: _257  and  _258
REMARK  107  A    between atoms: _257  and  _260
REMARK  108  A    between atoms: _260  and  _261
REMARK  109  A    between atoms: _264  and  _266
REMARK  110  A    between atoms: _266  and  _267
REMARK  111  A    between atoms: _266  and  _269
REMARK  112  A    between atoms: _269  and  _270
REMARK  113  A    between atoms: _272  and  _274
REMARK  114  A    between atoms: _274  and  _275
REMARK  115  A    between atoms: _274  and  _277
REMARK  116  A    between atoms: _277  and  _278
REMARK  117  A    between atoms: _282  and  MN_355
REMARK  118  A    between atoms: _283  and  _285
REMARK  119  A    between atoms: _285  and  _286
REMARK  120  A    between atoms: _289  and  _291
REMARK  121  A    between atoms: _291  and  _292
REMARK  122  A    between atoms: _291  and  _294
REMARK  123  A    between atoms: _294  and  _295
REMARK  124  A    between atoms: _300  and  _302
REMARK  125  A    between atoms: _302  and  _303
REMARK  126  A    between atoms: _302  and  _305
REMARK  127  A    between atoms: _305  and  _306
REMARK  128  A    between atoms: _306  and  _307
REMARK  129  A    between atoms: _309  and  _311
REMARK  130  A    between atoms: _311  and  _312
REMARK  131  A    between atoms: _311  and  _314
REMARK  132  A    between atoms: _314  and  _315
REMARK  133  A    between atoms: _315  and  _316
REMARK  134  A    between atoms: _316  and  _318
REMARK  135  A    between atoms: _318  and  MN_355
REMARK  136  A    between atoms: _319  and  _321
REMARK  137  A    between atoms: _321  and  _322
REMARK  138  A    between atoms: _321  and  _324
REMARK  139  A    between atoms: _324  and  _325
REMARK  140  A    between atoms: _327  and  _329
REMARK  141  A    between atoms: _329  and  _330
REMARK  142  A    between atoms: _329  and  _332
REMARK  143  A    between atoms: _332  and  _333
REMARK  144  A    between atoms: _336  and  _338
REMARK  145  A    between atoms: _338  and  _339
REMARK  146  A    between atoms: _338  and  _341
REMARK  147  A    between atoms: _341  and  _342
REMARK  148  A    between atoms: _342  and  _344
REMARK  149  A    between atoms: _344  and  MN_355
REMARK  150  A    between atoms: _345  and  _347
REMARK  151  A    between atoms: _347  and  _348
REMARK  152  A    between atoms: _347  and  _350
REMARK  153  A    between atoms: _350  and  _351
REMARK  154  A    between atoms: _351  and  _352
REMARK                            x       y       z     vdW  Elec       q    Type
REMARK                         _______ _______ _______ _____ _____    ______ ____
ROOT
ATOM      1  O   HOH     1      -4.927 -79.885  -5.328  0.00  0.00    +0.000 OA
ENDROOT
TORSDOF 0
REMARK  Name = ../refined-set-2016/4uma/4uma_pocket.pdb
REMARK  154 active torsions:
REMARK  status: ('A' for Active; 'I' for Inactive)
REMARK    1  A    between atoms: _1  and  _3
REMARK    2  A    between atoms: _3  and  _4
REMARK    3  A    between atoms: _7  and  _8
REMARK    4  A    between atoms: _13  and  _15
REMARK    5  A    between atoms: _15  and  _16
REMARK    6  A    between atoms: _15  and  _18
REMARK    7  A    between atoms: _18  and  _19
REMARK    8  A    between atoms: _19  and  MN_355
REMARK    9  A    between atoms: _20  and  _22
REMARK   10  A    between atoms: _22  and  _23
REMARK   11  A    between atoms: _22  and  _25
REMARK   12  A    between atoms: _25  and  _26
REMARK   13  A    between atoms: _28  and  _30
REMARK   14  A    between atoms: _30  and  _31
REMARK   15  A    between atoms: _30  and  _33
REMARK   16  A    between atoms: _33  and  _34
REMARK   17  A    between atoms: _34  and  _35
REMARK   18  A    between atoms: _35  and  _36
REMARK   19  A    between atoms: _45  and  _47
REMARK   20  A    between atoms: _47  and  _48
REMARK   21  A    between atoms: _47  and  _50
REMARK   22  A    between atoms: _50  and  _51
REMARK   23  A    between atoms: _56  and  _57
REMARK   24  A    between atoms: _59  and  _61
REMARK   25  A    between atoms: _61  and  _62
REMARK   26  A    between atoms: _61  and  _64
REMARK   27  A    between atoms: _64  and  _65
REMARK   28  A    between atoms: _65  and  _66
REMARK   29  A    between atoms: _69  and  _71
REMARK   30  A    between atoms: _71  and  _72
REMARK   31  A    between atoms: _71  and  _74
REMARK   32  A    between atoms: _74  and  _75
REMARK   33  A    between atoms: _75  and  _76
REMARK   34  A    between atoms: _76  and  _77
REMARK   35  A    between atoms: _77  and  _78
REMARK   36  A    between atoms: _83  and  _84
REMARK   37  A    between atoms: _89  and  _91
REMARK   38  A    between atoms: _91  and  _92
REMARK   39  A    between atoms: _91  and  _94
REMARK   40  A    between atoms: _94  and  _95
REMARK   41  A    between atoms: _95  and  _96
REMARK   42  A    between atoms: _96  and  _97
REMARK   43  A    between atoms: _106  and  _108
REMARK   44  A    between atoms: _108  and  _109
REMARK   45  A    between atoms: _108  and  _111
REMARK   46  A    between atoms: _111  and  _112
REMARK   47  A    between atoms: _112  and  _113
REMARK   48  A    between atoms: _116  and  _118
REMARK   49  A    between atoms: _118  and  _119
REMARK   50  A    between atoms: _122  and  _124
REMARK   51  A    between atoms: _124  and  _125
REMARK   52  A    between atoms: _124  and  _127
REMARK   53  A    between atoms: _127  and  _128
REMARK   54  A    between atoms: _131  and  _133
REMARK   55  A    between atoms: _133  and  _134
REMARK   56  A    between atoms: _136  and  _138
REMARK   57  A    between atoms: _138  and  _139
REMARK   58  A    between atoms: _142  and  _144
REMARK   59  A    between atoms: _144  and  _145
REMARK   60  A    between atoms: _144  and  _147
REMARK   61  A    between atoms: _147  and  _148
REMARK   62  A    between atoms: _148  and  _149
REMARK   63  A    between atoms: _149  and  _150
REMARK   64  A    between atoms: _159  and  _161
REMARK   65  A    between atoms: _161  and  _162
REMARK   66  A    between atoms: _161  and  _164
REMARK   67  A    between atoms: _164  and  _165
REMARK   68  A    between atoms: _168  and  _170
REMARK   69  A    between atoms: _170  and  _171
REMARK   70  A    between atoms: _170  and  _173
REMARK   71  A    between atoms: _173  and  _174
REMARK   72  A    between atoms: _177  and  _179
REMARK   73  A    between atoms: _179  and  _180
REMARK   74  A    between atoms: _179  and  _182
REMARK   75  A    between atoms: _182  and  _183
REMARK   76  A    between atoms: _183  and  _184
REMARK   77  A    between atoms: _184  and  _185
REMARK   78  A    between atoms: _185  and  _186
REMARK   79  A    between atoms: _190  and  _192
REMARK   80  A    between atoms: _192  and  _193
REMARK   81  A    between atoms: _192  and  _195
REMARK   82  A    between atoms: _195  and  _196
REMARK   83  A    between atoms: _201  and  _203
REMARK   84  A    between atoms: _203  and  _204
REMARK   85  A    between atoms: _206  and  _208
REMARK   86  A    between atoms: _208  and  _209
REMARK   87  A    between atoms: _208  and  _211
REMARK   88  A    between atoms: _211  and  _212
REMARK   89  A    between atoms: _215  and  _217
REMARK   90  A    between atoms: _217  and  _218
REMARK   91  A    between atoms: _217  and  _220
REMARK   92  A    between atoms: _220  and  _221
REMARK   93  A    between atoms: _224  and  _226
REMARK   94  A    between atoms: _226  and  _227
REMARK   95  A    between atoms: _226  and  _229
REMARK   96  A    between atoms: _229  and  _230
REMARK   97  A    between atoms: _233  and  _235
REMARK   98  A    between atoms: _235  and  _236
REMARK   99  A    between atoms: _235  and  _238
REMARK  100  A    between atoms: _238  and  _239
REMARK  101  A    between atoms: _239  and  _240
REMARK  102  A    between atoms: _240  and  _241
REMARK  103  A    between atoms: _250  and  _252
REMARK  104  A    between atoms: _252  and  _253
REMARK  105  A    between atoms: _255  and  _257
REMARK  106  A    between atoms: _257  and  _258
REMARK  107  A    between atoms: _257  and  _260
REMARK  108  A    between atoms: _260  and  _261
REMARK  109  A    between atoms: _264  and  _266
REMARK  110  A    between atoms: _266  and  _267
REMARK  111  A    between atoms: _266  and  _269
REMARK  112  A    between atoms: _269  and  _270
REMARK  113  A    between atoms: _272  and  _274
REMARK  114  A    between atoms: _274  and  _275
REMARK  115  A    between atoms: _274  and  _277
REMARK  116  A    between atoms: _277  and  _278
REMARK  117  A    between atoms: _282  and  MN_355
REMARK  118  A    between atoms: _283  and  _285
REMARK  119  A    between atoms: _285  and  _286
REMARK  120  A    between atoms: _289  and  _291
REMARK  121  A    between atoms: _291  and  _292
REMARK  122  A    between atoms: _291  and  _294
REMARK  123  A    between atoms: _294  and  _295
REMARK  124  A    between atoms: _300  and  _302
REMARK  125  A    between atoms: _302  and  _303
REMARK  126  A    between atoms: _302  and  _305
REMARK  127  A    between atoms: _305  and  _306
REMARK  128  A    between atoms: _306  and  _307
REMARK  129  A    between atoms: _309  and  _311
REMARK  130  A    between atoms: _311  and  _312
REMARK  131  A    between atoms: _311  and  _314
REMARK  132  A    between atoms: _314  and  _315
REMARK  133  A    between atoms: _315  and  _316
REMARK  134  A    between atoms: _316  and  _318
REMARK  135  A    between atoms: _318  and  MN_355
REMARK  136  A    between atoms: _319  and  _321
REMARK  137  A    between atoms: _321  and  _322
REMARK  138  A    between atoms: _321  and  _324
REMARK  139  A    between atoms: _324  and  _325
REMARK  140  A    between atoms: _327  and  _329
REMARK  141  A    between atoms: _329  and  _330
REMARK  142  A    between atoms: _329  and  _332
REMARK  143  A    between atoms: _332  and  _333
REMARK  144  A    between atoms: _336  and  _338
REMARK  145  A    between atoms: _338  and  _339
REMARK  146  A    between atoms: _338  and  _341
REMARK  147  A    between atoms: _341  and  _342
REMARK  148  A    between atoms: _342  and  _344
REMARK  149  A    between atoms: _344  and  MN_355
REMARK  150  A    between atoms: _345  and  _347
REMARK  151  A    between atoms: _347  and  _348
REMARK  152  A    between atoms: _347  and  _350
REMARK  153  A    between atoms: _350  and  _351
REMARK  154  A    between atoms: _351  and  _352
REMARK                            x       y       z     vdW  Elec       q    Type
REMARK                         _______ _______ _______ _____ _____    ______ ____
ROOT
ATOM      1  O   HOH     1      -6.128 -81.453  -1.856  0.00  0.00    +0.000 OA
ENDROOT
TORSDOF 0
REMARK  Name = ../refined-set-2016/4uma/4uma_pocket.pdb
REMARK  154 active torsions:
REMARK  status: ('A' for Active; 'I' for Inactive)
REMARK    1  A    between atoms: _1  and  _3
REMARK    2  A    between atoms: _3  and  _4
REMARK    3  A    between atoms: _7  and  _8
REMARK    4  A    between atoms: _13  and  _15
REMARK    5  A    between atoms: _15  and  _16
REMARK    6  A    between atoms: _15  and  _18
REMARK    7  A    between atoms: _18  and  _19
REMARK    8  A    between atoms: _19  and  MN_355
REMARK    9  A    between atoms: _20  and  _22
REMARK   10  A    between atoms: _22  and  _23
REMARK   11  A    between atoms: _22  and  _25
REMARK   12  A    between atoms: _25  and  _26
REMARK   13  A    between atoms: _28  and  _30
REMARK   14  A    between atoms: _30  and  _31
REMARK   15  A    between atoms: _30  and  _33
REMARK   16  A    between atoms: _33  and  _34
REMARK   17  A    between atoms: _34  and  _35
REMARK   18  A    between atoms: _35  and  _36
REMARK   19  A    between atoms: _45  and  _47
REMARK   20  A    between atoms: _47  and  _48
REMARK   21  A    between atoms: _47  and  _50
REMARK   22  A    between atoms: _50  and  _51
REMARK   23  A    between atoms: _56  and  _57
REMARK   24  A    between atoms: _59  and  _61
REMARK   25  A    between atoms: _61  and  _62
REMARK   26  A    between atoms: _61  and  _64
REMARK   27  A    between atoms: _64  and  _65
REMARK   28  A    between atoms: _65  and  _66
REMARK   29  A    between atoms: _69  and  _71
REMARK   30  A    between atoms: _71  and  _72
REMARK   31  A    between atoms: _71  and  _74
REMARK   32  A    between atoms: _74  and  _75
REMARK   33  A    between atoms: _75  and  _76
REMARK   34  A    between atoms: _76  and  _77
REMARK   35  A    between atoms: _77  and  _78
REMARK   36  A    between atoms: _83  and  _84
REMARK   37  A    between atoms: _89  and  _91
REMARK   38  A    between atoms: _91  and  _92
REMARK   39  A    between atoms: _91  and  _94
REMARK   40  A    between atoms: _94  and  _95
REMARK   41  A    between atoms: _95  and  _96
REMARK   42  A    between atoms: _96  and  _97
REMARK   43  A    between atoms: _106  and  _108
REMARK   44  A    between atoms: _108  and  _109
REMARK   45  A    between atoms: _108  and  _111
REMARK   46  A    between atoms: _111  and  _112
REMARK   47  A    between atoms: _112  and  _113
REMARK   48  A    between atoms: _116  and  _118
REMARK   49  A    between atoms: _118  and  _119
REMARK   50  A    between atoms: _122  and  _124
REMARK   51  A    between atoms: _124  and  _125
REMARK   52  A    between atoms: _124  and  _127
REMARK   53  A    between atoms: _127  and  _128
REMARK   54  A    between atoms: _131  and  _133
REMARK   55  A    between atoms: _133  and  _134
REMARK   56  A    between atoms: _136  and  _138
REMARK   57  A    between atoms: _138  and  _139
REMARK   58  A    between atoms: _142  and  _144
REMARK   59  A    between atoms: _144  and  _145
REMARK   60  A    between atoms: _144  and  _147
REMARK   61  A    between atoms: _147  and  _148
REMARK   62  A    between atoms: _148  and  _149
REMARK   63  A    between atoms: _149  and  _150
REMARK   64  A    between atoms: _159  and  _161
REMARK   65  A    between atoms: _161  and  _162
REMARK   66  A    between atoms: _161  and  _164
REMARK   67  A    between atoms: _164  and  _165
REMARK   68  A    between atoms: _168  and  _170
REMARK   69  A    between atoms: _170  and  _171
REMARK   70  A    between atoms: _170  and  _173
REMARK   71  A    between atoms: _173  and  _174
REMARK   72  A    between atoms: _177  and  _179
REMARK   73  A    between atoms: _179  and  _180
REMARK   74  A    between atoms: _179  and  _182
REMARK   75  A    between atoms: _182  and  _183
REMARK   76  A    between atoms: _183  and  _184
REMARK   77  A    between atoms: _184  and  _185
REMARK   78  A    between atoms: _185  and  _186
REMARK   79  A    between atoms: _190  and  _192
REMARK   80  A    between atoms: _192  and  _193
REMARK   81  A    between atoms: _192  and  _195
REMARK   82  A    between atoms: _195  and  _196
REMARK   83  A    between atoms: _201  and  _203
REMARK   84  A    between atoms: _203  and  _204
REMARK   85  A    between atoms: _206  and  _208
REMARK   86  A    between atoms: _208  and  _209
REMARK   87  A    between atoms: _208  and  _211
REMARK   88  A    between atoms: _211  and  _212
REMARK   89  A    between atoms: _215  and  _217
REMARK   90  A    between atoms: _217  and  _218
REMARK   91  A    between atoms: _217  and  _220
REMARK   92  A    between atoms: _220  and  _221
REMARK   93  A    between atoms: _224  and  _226
REMARK   94  A    between atoms: _226  and  _227
REMARK   95  A    between atoms: _226  and  _229
REMARK   96  A    between atoms: _229  and  _230
REMARK   97  A    between atoms: _233  and  _235
REMARK   98  A    between atoms: _235  and  _236
REMARK   99  A    between atoms: _235  and  _238
REMARK  100  A    between atoms: _238  and  _239
REMARK  101  A    between atoms: _239  and  _240
REMARK  102  A    between atoms: _240  and  _241
REMARK  103  A    between atoms: _250  and  _252
REMARK  104  A    between atoms: _252  and  _253
REMARK  105  A    between atoms: _255  and  _257
REMARK  106  A    between atoms: _257  and  _258
REMARK  107  A    between atoms: _257  and  _260
REMARK  108  A    between atoms: _260  and  _261
REMARK  109  A    between atoms: _264  and  _266
REMARK  110  A    between atoms: _266  and  _267
REMARK  111  A    between atoms: _266  and  _269
REMARK  112  A    between atoms: _269  and  _270
REMARK  113  A    between atoms: _272  and  _274
REMARK  114  A    between atoms: _274  and  _275
REMARK  115  A    between atoms: _274  and  _277
REMARK  116  A    between atoms: _277  and  _278
REMARK  117  A    between atoms: _282  and  MN_355
REMARK  118  A    between atoms: _283  and  _285
REMARK  119  A    between atoms: _285  and  _286
REMARK  120  A    between atoms: _289  and  _291
REMARK  121  A    between atoms: _291  and  _292
REMARK  122  A    between atoms: _291  and  _294
REMARK  123  A    between atoms: _294  and  _295
REMARK  124  A    between atoms: _300  and  _302
REMARK  125  A    between atoms: _302  and  _303
REMARK  126  A    between atoms: _302  and  _305
REMARK  127  A    between atoms: _305  and  _306
REMARK  128  A    between atoms: _306  and  _307
REMARK  129  A    between atoms: _309  and  _311
REMARK  130  A    between atoms: _311  and  _312
REMARK  131  A    between atoms: _311  and  _314
REMARK  132  A    between atoms: _314  and  _315
REMARK  133  A    between atoms: _315  and  _316
REMARK  134  A    between atoms: _316  and  _318
REMARK  135  A    between atoms: _318  and  MN_355
REMARK  136  A    between atoms: _319  and  _321
REMARK  137  A    between atoms: _321  and  _322
REMARK  138  A    between atoms: _321  and  _324
REMARK  139  A    between atoms: _324  and  _325
REMARK  140  A    between atoms: _327  and  _329
REMARK  141  A    between atoms: _329  and  _330
REMARK  142  A    between atoms: _329  and  _332
REMARK  143  A    between atoms: _332  and  _333
REMARK  144  A    between atoms: _336  and  _338
REMARK  145  A    between atoms: _338  and  _339
REMARK  146  A    between atoms: _338  and  _341
REMARK  147  A    between atoms: _341  and  _342
REMARK  148  A    between atoms: _342  and  _344
REMARK  149  A    between atoms: _344  and  MN_355
REMARK  150  A    between atoms: _345  and  _347
REMARK  151  A    between atoms: _347  and  _348
REMARK  152  A    between atoms: _347  and  _350
REMARK  153  A    between atoms: _350  and  _351
REMARK  154  A    between atoms: _351  and  _352
REMARK                            x       y       z     vdW  Elec       q    Type
REMARK                         _______ _______ _______ _____ _____    ______ ____
ROOT
ATOM      1  O   HOH     1      -6.553 -80.810   2.930  0.00  0.00    +0.000 OA
ENDROOT
TORSDOF 0
REMARK  Name = ../refined-set-2016/4uma/4uma_pocket.pdb
REMARK  154 active torsions:
REMARK  status: ('A' for Active; 'I' for Inactive)
REMARK    1  A    between atoms: _1  and  _3
REMARK    2  A    between atoms: _3  and  _4
REMARK    3  A    between atoms: _7  and  _8
REMARK    4  A    between atoms: _13  and  _15
REMARK    5  A    between atoms: _15  and  _16
REMARK    6  A    between atoms: _15  and  _18
REMARK    7  A    between atoms: _18  and  _19
REMARK    8  A    between atoms: _19  and  MN_355
REMARK    9  A    between atoms: _20  and  _22
REMARK   10  A    between atoms: _22  and  _23
REMARK   11  A    between atoms: _22  and  _25
REMARK   12  A    between atoms: _25  and  _26
REMARK   13  A    between atoms: _28  and  _30
REMARK   14  A    between atoms: _30  and  _31
REMARK   15  A    between atoms: _30  and  _33
REMARK   16  A    between atoms: _33  and  _34
REMARK   17  A    between atoms: _34  and  _35
REMARK   18  A    between atoms: _35  and  _36
REMARK   19  A    between atoms: _45  and  _47
REMARK   20  A    between atoms: _47  and  _48
REMARK   21  A    between atoms: _47  and  _50
REMARK   22  A    between atoms: _50  and  _51
REMARK   23  A    between atoms: _56  and  _57
REMARK   24  A    between atoms: _59  and  _61
REMARK   25  A    between atoms: _61  and  _62
REMARK   26  A    between atoms: _61  and  _64
REMARK   27  A    between atoms: _64  and  _65
REMARK   28  A    between atoms: _65  and  _66
REMARK   29  A    between atoms: _69  and  _71
REMARK   30  A    between atoms: _71  and  _72
REMARK   31  A    between atoms: _71  and  _74
REMARK   32  A    between atoms: _74  and  _75
REMARK   33  A    between atoms: _75  and  _76
REMARK   34  A    between atoms: _76  and  _77
REMARK   35  A    between atoms: _77  and  _78
REMARK   36  A    between atoms: _83  and  _84
REMARK   37  A    between atoms: _89  and  _91
REMARK   38  A    between atoms: _91  and  _92
REMARK   39  A    between atoms: _91  and  _94
REMARK   40  A    between atoms: _94  and  _95
REMARK   41  A    between atoms: _95  and  _96
REMARK   42  A    between atoms: _96  and  _97
REMARK   43  A    between atoms: _106  and  _108
REMARK   44  A    between atoms: _108  and  _109
REMARK   45  A    between atoms: _108  and  _111
REMARK   46  A    between atoms: _111  and  _112
REMARK   47  A    between atoms: _112  and  _113
REMARK   48  A    between atoms: _116  and  _118
REMARK   49  A    between atoms: _118  and  _119
REMARK   50  A    between atoms: _122  and  _124
REMARK   51  A    between atoms: _124  and  _125
REMARK   52  A    between atoms: _124  and  _127
REMARK   53  A    between atoms: _127  and  _128
REMARK   54  A    between atoms: _131  and  _133
REMARK   55  A    between atoms: _133  and  _134
REMARK   56  A    between atoms: _136  and  _138
REMARK   57  A    between atoms: _138  and  _139
REMARK   58  A    between atoms: _142  and  _144
REMARK   59  A    between atoms: _144  and  _145
REMARK   60  A    between atoms: _144  and  _147
REMARK   61  A    between atoms: _147  and  _148
REMARK   62  A    between atoms: _148  and  _149
REMARK   63  A    between atoms: _149  and  _150
REMARK   64  A    between atoms: _159  and  _161
REMARK   65  A    between atoms: _161  and  _162
REMARK   66  A    between atoms: _161  and  _164
REMARK   67  A    between atoms: _164  and  _165
REMARK   68  A    between atoms: _168  and  _170
REMARK   69  A    between atoms: _170  and  _171
REMARK   70  A    between atoms: _170  and  _173
REMARK   71  A    between atoms: _173  and  _174
REMARK   72  A    between atoms: _177  and  _179
REMARK   73  A    between atoms: _179  and  _180
REMARK   74  A    between atoms: _179  and  _182
REMARK   75  A    between atoms: _182  and  _183
REMARK   76  A    between atoms: _183  and  _184
REMARK   77  A    between atoms: _184  and  _185
REMARK   78  A    between atoms: _185  and  _186
REMARK   79  A    between atoms: _190  and  _192
REMARK   80  A    between atoms: _192  and  _193
REMARK   81  A    between atoms: _192  and  _195
REMARK   82  A    between atoms: _195  and  _196
REMARK   83  A    between atoms: _201  and  _203
REMARK   84  A    between atoms: _203  and  _204
REMARK   85  A    between atoms: _206  and  _208
REMARK   86  A    between atoms: _208  and  _209
REMARK   87  A    between atoms: _208  and  _211
REMARK   88  A    between atoms: _211  and  _212
REMARK   89  A    between atoms: _215  and  _217
REMARK   90  A    between atoms: _217  and  _218
REMARK   91  A    between atoms: _217  and  _220
REMARK   92  A    between atoms: _220  and  _221
REMARK   93  A    between atoms: _224  and  _226
REMARK   94  A    between atoms: _226  and  _227
REMARK   95  A    between atoms: _226  and  _229
REMARK   96  A    between atoms: _229  and  _230
REMARK   97  A    between atoms: _233  and  _235
REMARK   98  A    between atoms: _235  and  _236
REMARK   99  A    between atoms: _235  and  _238
REMARK  100  A    between atoms: _238  and  _239
REMARK  101  A    between atoms: _239  and  _240
REMARK  102  A    between atoms: _240  and  _241
REMARK  103  A    between atoms: _250  and  _252
REMARK  104  A    between atoms: _252  and  _253
REMARK  105  A    between atoms: _255  and  _257
REMARK  106  A    between atoms: _257  and  _258
REMARK  107  A    between atoms: _257  and  _260
REMARK  108  A    between atoms: _260  and  _261
REMARK  109  A    between atoms: _264  and  _266
REMARK  110  A    between atoms: _266  and  _267
REMARK  111  A    between atoms: _266  and  _269
REMARK  112  A    between atoms: _269  and  _270
REMARK  113  A    between atoms: _272  and  _274
REMARK  114  A    between atoms: _274  and  _275
REMARK  115  A    between atoms: _274  and  _277
REMARK  116  A    between atoms: _277  and  _278
REMARK  117  A    between atoms: _282  and  MN_355
REMARK  118  A    between atoms: _283  and  _285
REMARK  119  A    between atoms: _285  and  _286
REMARK  120  A    between atoms: _289  and  _291
REMARK  121  A    between atoms: _291  and  _292
REMARK  122  A    between atoms: _291  and  _294
REMARK  123  A    between atoms: _294  and  _295
REMARK  124  A    between atoms: _300  and  _302
REMARK  125  A    between atoms: _302  and  _303
REMARK  126  A    between atoms: _302  and  _305
REMARK  127  A    between atoms: _305  and  _306
REMARK  128  A    between atoms: _306  and  _307
REMARK  129  A    between atoms: _309  and  _311
REMARK  130  A    between atoms: _311  and  _312
REMARK  131  A    between atoms: _311  and  _314
REMARK  132  A    between atoms: _314  and  _315
REMARK  133  A    between atoms: _315  and  _316
REMARK  134  A    between atoms: _316  and  _318
REMARK  135  A    between atoms: _318  and  MN_355
REMARK  136  A    between atoms: _319  and  _321
REMARK  137  A    between atoms: _321  and  _322
REMARK  138  A    between atoms: _321  and  _324
REMARK  139  A    between atoms: _324  and  _325
REMARK  140  A    between atoms: _327  and  _329
REMARK  141  A    between atoms: _329  and  _330
REMARK  142  A    between atoms: _329  and  _332
REMARK  143  A    between atoms: _332  and  _333
REMARK  144  A    between atoms: _336  and  _338
REMARK  145  A    between atoms: _338  and  _339
REMARK  146  A    between atoms: _338  and  _341
REMARK  147  A    between atoms: _341  and  _342
REMARK  148  A    between atoms: _342  and  _344
REMARK  149  A    between atoms: _344  and  MN_355
REMARK  150  A    between atoms: _345  and  _347
REMARK  151  A    between atoms: _347  and  _348
REMARK  152  A    between atoms: _347  and  _350
REMARK  153  A    between atoms: _350  and  _351
REMARK  154  A    between atoms: _351  and  _352
REMARK                            x       y       z     vdW  Elec       q    Type
REMARK                         _______ _______ _______ _____ _____    ______ ____
ROOT
ATOM      1  O   HOH     1      -4.672 -79.405   4.073  0.00  0.00    +0.000 OA
ENDROOT
TORSDOF 0
REMARK  Name = ../refined-set-2016/4uma/4uma_pocket.pdb
REMARK  154 active torsions:
REMARK  status: ('A' for Active; 'I' for Inactive)
REMARK    1  A    between atoms: _1  and  _3
REMARK    2  A    between atoms: _3  and  _4
REMARK    3  A    between atoms: _7  and  _8
REMARK    4  A    between atoms: _13  and  _15
REMARK    5  A    between atoms: _15  and  _16
REMARK    6  A    between atoms: _15  and  _18
REMARK    7  A    between atoms: _18  and  _19
REMARK    8  A    between atoms: _19  and  MN_355
REMARK    9  A    between atoms: _20  and  _22
REMARK   10  A    between atoms: _22  and  _23
REMARK   11  A    between atoms: _22  and  _25
REMARK   12  A    between atoms: _25  and  _26
REMARK   13  A    between atoms: _28  and  _30
REMARK   14  A    between atoms: _30  and  _31
REMARK   15  A    between atoms: _30  and  _33
REMARK   16  A    between atoms: _33  and  _34
REMARK   17  A    between atoms: _34  and  _35
REMARK   18  A    between atoms: _35  and  _36
REMARK   19  A    between atoms: _45  and  _47
REMARK   20  A    between atoms: _47  and  _48
REMARK   21  A    between atoms: _47  and  _50
REMARK   22  A    between atoms: _50  and  _51
REMARK   23  A    between atoms: _56  and  _57
REMARK   24  A    between atoms: _59  and  _61
REMARK   25  A    between atoms: _61  and  _62
REMARK   26  A    between atoms: _61  and  _64
REMARK   27  A    between atoms: _64  and  _65
REMARK   28  A    between atoms: _65  and  _66
REMARK   29  A    between atoms: _69  and  _71
REMARK   30  A    between atoms: _71  and  _72
REMARK   31  A    between atoms: _71  and  _74
REMARK   32  A    between atoms: _74  and  _75
REMARK   33  A    between atoms: _75  and  _76
REMARK   34  A    between atoms: _76  and  _77
REMARK   35  A    between atoms: _77  and  _78
REMARK   36  A    between atoms: _83  and  _84
REMARK   37  A    between atoms: _89  and  _91
REMARK   38  A    between atoms: _91  and  _92
REMARK   39  A    between atoms: _91  and  _94
REMARK   40  A    between atoms: _94  and  _95
REMARK   41  A    between atoms: _95  and  _96
REMARK   42  A    between atoms: _96  and  _97
REMARK   43  A    between atoms: _106  and  _108
REMARK   44  A    between atoms: _108  and  _109
REMARK   45  A    between atoms: _108  and  _111
REMARK   46  A    between atoms: _111  and  _112
REMARK   47  A    between atoms: _112  and  _113
REMARK   48  A    between atoms: _116  and  _118
REMARK   49  A    between atoms: _118  and  _119
REMARK   50  A    between atoms: _122  and  _124
REMARK   51  A    between atoms: _124  and  _125
REMARK   52  A    between atoms: _124  and  _127
REMARK   53  A    between atoms: _127  and  _128
REMARK   54  A    between atoms: _131  and  _133
REMARK   55  A    between atoms: _133  and  _134
REMARK   56  A    between atoms: _136  and  _138
REMARK   57  A    between atoms: _138  and  _139
REMARK   58  A    between atoms: _142  and  _144
REMARK   59  A    between atoms: _144  and  _145
REMARK   60  A    between atoms: _144  and  _147
REMARK   61  A    between atoms: _147  and  _148
REMARK   62  A    between atoms: _148  and  _149
REMARK   63  A    between atoms: _149  and  _150
REMARK   64  A    between atoms: _159  and  _161
REMARK   65  A    between atoms: _161  and  _162
REMARK   66  A    between atoms: _161  and  _164
REMARK   67  A    between atoms: _164  and  _165
REMARK   68  A    between atoms: _168  and  _170
REMARK   69  A    between atoms: _170  and  _171
REMARK   70  A    between atoms: _170  and  _173
REMARK   71  A    between atoms: _173  and  _174
REMARK   72  A    between atoms: _177  and  _179
REMARK   73  A    between atoms: _179  and  _180
REMARK   74  A    between atoms: _179  and  _182
REMARK   75  A    between atoms: _182  and  _183
REMARK   76  A    between atoms: _183  and  _184
REMARK   77  A    between atoms: _184  and  _185
REMARK   78  A    between atoms: _185  and  _186
REMARK   79  A    between atoms: _190  and  _192
REMARK   80  A    between atoms: _192  and  _193
REMARK   81  A    between atoms: _192  and  _195
REMARK   82  A    between atoms: _195  and  _196
REMARK   83  A    between atoms: _201  and  _203
REMARK   84  A    between atoms: _203  and  _204
REMARK   85  A    between atoms: _206  and  _208
REMARK   86  A    between atoms: _208  and  _209
REMARK   87  A    between atoms: _208  and  _211
REMARK   88  A    between atoms: _211  and  _212
REMARK   89  A    between atoms: _215  and  _217
REMARK   90  A    between atoms: _217  and  _218
REMARK   91  A    between atoms: _217  and  _220
REMARK   92  A    between atoms: _220  and  _221
REMARK   93  A    between atoms: _224  and  _226
REMARK   94  A    between atoms: _226  and  _227
REMARK   95  A    between atoms: _226  and  _229
REMARK   96  A    between atoms: _229  and  _230
REMARK   97  A    between atoms: _233  and  _235
REMARK   98  A    between atoms: _235  and  _236
REMARK   99  A    between atoms: _235  and  _238
REMARK  100  A    between atoms: _238  and  _239
REMARK  101  A    between atoms: _239  and  _240
REMARK  102  A    between atoms: _240  and  _241
REMARK  103  A    between atoms: _250  and  _252
REMARK  104  A    between atoms: _252  and  _253
REMARK  105  A    between atoms: _255  and  _257
REMARK  106  A    between atoms: _257  and  _258
REMARK  107  A    between atoms: _257  and  _260
REMARK  108  A    between atoms: _260  and  _261
REMARK  109  A    between atoms: _264  and  _266
REMARK  110  A    between atoms: _266  and  _267
REMARK  111  A    between atoms: _266  and  _269
REMARK  112  A    between atoms: _269  and  _270
REMARK  113  A    between atoms: _272  and  _274
REMARK  114  A    between atoms: _274  and  _275
REMARK  115  A    between atoms: _274  and  _277
REMARK  116  A    between atoms: _277  and  _278
REMARK  117  A    between atoms: _282  and  MN_355
REMARK  118  A    between atoms: _283  and  _285
REMARK  119  A    between atoms: _285  and  _286
REMARK  120  A    between atoms: _289  and  _291
REMARK  121  A    between atoms: _291  and  _292
REMARK  122  A    between atoms: _291  and  _294
REMARK  123  A    between atoms: _294  and  _295
REMARK  124  A    between atoms: _300  and  _302
REMARK  125  A    between atoms: _302  and  _303
REMARK  126  A    between atoms: _302  and  _305
REMARK  127  A    between atoms: _305  and  _306
REMARK  128  A    between atoms: _306  and  _307
REMARK  129  A    between atoms: _309  and  _311
REMARK  130  A    between atoms: _311  and  _312
REMARK  131  A    between atoms: _311  and  _314
REMARK  132  A    between atoms: _314  and  _315
REMARK  133  A    between atoms: _315  and  _316
REMARK  134  A    between atoms: _316  and  _318
REMARK  135  A    between atoms: _318  and  MN_355
REMARK  136  A    between atoms: _319  and  _321
REMARK  137  A    between atoms: _321  and  _322
REMARK  138  A    between atoms: _321  and  _324
REMARK  139  A    between atoms: _324  and  _325
REMARK  140  A    between atoms: _327  and  _329
REMARK  141  A    between atoms: _329  and  _330
REMARK  142  A    between atoms: _329  and  _332
REMARK  143  A    between atoms: _332  and  _333
REMARK  144  A    between atoms: _336  and  _338
REMARK  145  A    between atoms: _338  and  _339
REMARK  146  A    between atoms: _338  and  _341
REMARK  147  A    between atoms: _341  and  _342
REMARK  148  A    between atoms: _342  and  _344
REMARK  149  A    between atoms: _344  and  MN_355
REMARK  150  A    between atoms: _345  and  _347
REMARK  151  A    between atoms: _347  and  _348
REMARK  152  A    between atoms: _347  and  _350
REMARK  153  A    between atoms: _350  and  _351
REMARK  154  A    between atoms: _351  and  _352
REMARK                            x       y       z     vdW  Elec       q    Type
REMARK                         _______ _______ _______ _____ _____    ______ ____
ROOT
ATOM      1  O   HOH     1      -7.183 -82.693   6.696  0.00  0.00    +0.000 OA
ENDROOT
TORSDOF 0
REMARK  Name = ../refined-set-2016/4uma/4uma_pocket.pdb
REMARK  154 active torsions:
REMARK  status: ('A' for Active; 'I' for Inactive)
REMARK    1  A    between atoms: _1  and  _3
REMARK    2  A    between atoms: _3  and  _4
REMARK    3  A    between atoms: _7  and  _8
REMARK    4  A    between atoms: _13  and  _15
REMARK    5  A    between atoms: _15  and  _16
REMARK    6  A    between atoms: _15  and  _18
REMARK    7  A    between atoms: _18  and  _19
REMARK    8  A    between atoms: _19  and  MN_355
REMARK    9  A    between atoms: _20  and  _22
REMARK   10  A    between atoms: _22  and  _23
REMARK   11  A    between atoms: _22  and  _25
REMARK   12  A    between atoms: _25  and  _26
REMARK   13  A    between atoms: _28  and  _30
REMARK   14  A    between atoms: _30  and  _31
REMARK   15  A    between atoms: _30  and  _33
REMARK   16  A    between atoms: _33  and  _34
REMARK   17  A    between atoms: _34  and  _35
REMARK   18  A    between atoms: _35  and  _36
REMARK   19  A    between atoms: _45  and  _47
REMARK   20  A    between atoms: _47  and  _48
REMARK   21  A    between atoms: _47  and  _50
REMARK   22  A    between atoms: _50  and  _51
REMARK   23  A    between atoms: _56  and  _57
REMARK   24  A    between atoms: _59  and  _61
REMARK   25  A    between atoms: _61  and  _62
REMARK   26  A    between atoms: _61  and  _64
REMARK   27  A    between atoms: _64  and  _65
REMARK   28  A    between atoms: _65  and  _66
REMARK   29  A    between atoms: _69  and  _71
REMARK   30  A    between atoms: _71  and  _72
REMARK   31  A    between atoms: _71  and  _74
REMARK   32  A    between atoms: _74  and  _75
REMARK   33  A    between atoms: _75  and  _76
REMARK   34  A    between atoms: _76  and  _77
REMARK   35  A    between atoms: _77  and  _78
REMARK   36  A    between atoms: _83  and  _84
REMARK   37  A    between atoms: _89  and  _91
REMARK   38  A    between atoms: _91  and  _92
REMARK   39  A    between atoms: _91  and  _94
REMARK   40  A    between atoms: _94  and  _95
REMARK   41  A    between atoms: _95  and  _96
REMARK   42  A    between atoms: _96  and  _97
REMARK   43  A    between atoms: _106  and  _108
REMARK   44  A    between atoms: _108  and  _109
REMARK   45  A    between atoms: _108  and  _111
REMARK   46  A    between atoms: _111  and  _112
REMARK   47  A    between atoms: _112  and  _113
REMARK   48  A    between atoms: _116  and  _118
REMARK   49  A    between atoms: _118  and  _119
REMARK   50  A    between atoms: _122  and  _124
REMARK   51  A    between atoms: _124  and  _125
REMARK   52  A    between atoms: _124  and  _127
REMARK   53  A    between atoms: _127  and  _128
REMARK   54  A    between atoms: _131  and  _133
REMARK   55  A    between atoms: _133  and  _134
REMARK   56  A    between atoms: _136  and  _138
REMARK   57  A    between atoms: _138  and  _139
REMARK   58  A    between atoms: _142  and  _144
REMARK   59  A    between atoms: _144  and  _145
REMARK   60  A    between atoms: _144  and  _147
REMARK   61  A    between atoms: _147  and  _148
REMARK   62  A    between atoms: _148  and  _149
REMARK   63  A    between atoms: _149  and  _150
REMARK   64  A    between atoms: _159  and  _161
REMARK   65  A    between atoms: _161  and  _162
REMARK   66  A    between atoms: _161  and  _164
REMARK   67  A    between atoms: _164  and  _165
REMARK   68  A    between atoms: _168  and  _170
REMARK   69  A    between atoms: _170  and  _171
REMARK   70  A    between atoms: _170  and  _173
REMARK   71  A    between atoms: _173  and  _174
REMARK   72  A    between atoms: _177  and  _179
REMARK   73  A    between atoms: _179  and  _180
REMARK   74  A    between atoms: _179  and  _182
REMARK   75  A    between atoms: _182  and  _183
REMARK   76  A    between atoms: _183  and  _184
REMARK   77  A    between atoms: _184  and  _185
REMARK   78  A    between atoms: _185  and  _186
REMARK   79  A    between atoms: _190  and  _192
REMARK   80  A    between atoms: _192  and  _193
REMARK   81  A    between atoms: _192  and  _195
REMARK   82  A    between atoms: _195  and  _196
REMARK   83  A    between atoms: _201  and  _203
REMARK   84  A    between atoms: _203  and  _204
REMARK   85  A    between atoms: _206  and  _208
REMARK   86  A    between atoms: _208  and  _209
REMARK   87  A    between atoms: _208  and  _211
REMARK   88  A    between atoms: _211  and  _212
REMARK   89  A    between atoms: _215  and  _217
REMARK   90  A    between atoms: _217  and  _218
REMARK   91  A    between atoms: _217  and  _220
REMARK   92  A    between atoms: _220  and  _221
REMARK   93  A    between atoms: _224  and  _226
REMARK   94  A    between atoms: _226  and  _227
REMARK   95  A    between atoms: _226  and  _229
REMARK   96  A    between atoms: _229  and  _230
REMARK   97  A    between atoms: _233  and  _235
REMARK   98  A    between atoms: _235  and  _236
REMARK   99  A    between atoms: _235  and  _238
REMARK  100  A    between atoms: _238  and  _239
REMARK  101  A    between atoms: _239  and  _240
REMARK  102  A    between atoms: _240  and  _241
REMARK  103  A    between atoms: _250  and  _252
REMARK  104  A    between atoms: _252  and  _253
REMARK  105  A    between atoms: _255  and  _257
REMARK  106  A    between atoms: _257  and  _258
REMARK  107  A    between atoms: _257  and  _260
REMARK  108  A    between atoms: _260  and  _261
REMARK  109  A    between atoms: _264  and  _266
REMARK  110  A    between atoms: _266  and  _267
REMARK  111  A    between atoms: _266  and  _269
REMARK  112  A    between atoms: _269  and  _270
REMARK  113  A    between atoms: _272  and  _274
REMARK  114  A    between atoms: _274  and  _275
REMARK  115  A    between atoms: _274  and  _277
REMARK  116  A    between atoms: _277  and  _278
REMARK  117  A    between atoms: _282  and  MN_355
REMARK  118  A    between atoms: _283  and  _285
REMARK  119  A    between atoms: _285  and  _286
REMARK  120  A    between atoms: _289  and  _291
REMARK  121  A    between atoms: _291  and  _292
REMARK  122  A    between atoms: _291  and  _294
REMARK  123  A    between atoms: _294  and  _295
REMARK  124  A    between atoms: _300  and  _302
REMARK  125  A    between atoms: _302  and  _303
REMARK  126  A    between atoms: _302  and  _305
REMARK  127  A    between atoms: _305  and  _306
REMARK  128  A    between atoms: _306  and  _307
REMARK  129  A    between atoms: _309  and  _311
REMARK  130  A    between atoms: _311  and  _312
REMARK  131  A    between atoms: _311  and  _314
REMARK  132  A    between atoms: _314  and  _315
REMARK  133  A    between atoms: _315  and  _316
REMARK  134  A    between atoms: _316  and  _318
REMARK  135  A    between atoms: _318  and  MN_355
REMARK  136  A    between atoms: _319  and  _321
REMARK  137  A    between atoms: _321  and  _322
REMARK  138  A    between atoms: _321  and  _324
REMARK  139  A    between atoms: _324  and  _325
REMARK  140  A    between atoms: _327  and  _329
REMARK  141  A    between atoms: _329  and  _330
REMARK  142  A    between atoms: _329  and  _332
REMARK  143  A    between atoms: _332  and  _333
REMARK  144  A    between atoms: _336  and  _338
REMARK  145  A    between atoms: _338  and  _339
REMARK  146  A    between atoms: _338  and  _341
REMARK  147  A    between atoms: _341  and  _342
REMARK  148  A    between atoms: _342  and  _344
REMARK  149  A    between atoms: _344  and  MN_355
REMARK  150  A    between atoms: _345  and  _347
REMARK  151  A    between atoms: _347  and  _348
REMARK  152  A    between atoms: _347  and  _350
REMARK  153  A    between atoms: _350  and  _351
REMARK  154  A    between atoms: _351  and  _352
REMARK                            x       y       z     vdW  Elec       q    Type
REMARK                         _______ _______ _______ _____ _____    ______ ____
ROOT
ATOM      1  O   HOH     1      -8.347 -85.455  -2.530  0.00  0.00    +0.000 OA
ENDROOT
TORSDOF 0
REMARK  Name = ../refined-set-2016/4uma/4uma_pocket.pdb
REMARK  154 active torsions:
REMARK  status: ('A' for Active; 'I' for Inactive)
REMARK    1  A    between atoms: _1  and  _3
REMARK    2  A    between atoms: _3  and  _4
REMARK    3  A    between atoms: _7  and  _8
REMARK    4  A    between atoms: _13  and  _15
REMARK    5  A    between atoms: _15  and  _16
REMARK    6  A    between atoms: _15  and  _18
REMARK    7  A    between atoms: _18  and  _19
REMARK    8  A    between atoms: _19  and  MN_355
REMARK    9  A    between atoms: _20  and  _22
REMARK   10  A    between atoms: _22  and  _23
REMARK   11  A    between atoms: _22  and  _25
REMARK   12  A    between atoms: _25  and  _26
REMARK   13  A    between atoms: _28  and  _30
REMARK   14  A    between atoms: _30  and  _31
REMARK   15  A    between atoms: _30  and  _33
REMARK   16  A    between atoms: _33  and  _34
REMARK   17  A    between atoms: _34  and  _35
REMARK   18  A    between atoms: _35  and  _36
REMARK   19  A    between atoms: _45  and  _47
REMARK   20  A    between atoms: _47  and  _48
REMARK   21  A    between atoms: _47  and  _50
REMARK   22  A    between atoms: _50  and  _51
REMARK   23  A    between atoms: _56  and  _57
REMARK   24  A    between atoms: _59  and  _61
REMARK   25  A    between atoms: _61  and  _62
REMARK   26  A    between atoms: _61  and  _64
REMARK   27  A    between atoms: _64  and  _65
REMARK   28  A    between atoms: _65  and  _66
REMARK   29  A    between atoms: _69  and  _71
REMARK   30  A    between atoms: _71  and  _72
REMARK   31  A    between atoms: _71  and  _74
REMARK   32  A    between atoms: _74  and  _75
REMARK   33  A    between atoms: _75  and  _76
REMARK   34  A    between atoms: _76  and  _77
REMARK   35  A    between atoms: _77  and  _78
REMARK   36  A    between atoms: _83  and  _84
REMARK   37  A    between atoms: _89  and  _91
REMARK   38  A    between atoms: _91  and  _92
REMARK   39  A    between atoms: _91  and  _94
REMARK   40  A    between atoms: _94  and  _95
REMARK   41  A    between atoms: _95  and  _96
REMARK   42  A    between atoms: _96  and  _97
REMARK   43  A    between atoms: _106  and  _108
REMARK   44  A    between atoms: _108  and  _109
REMARK   45  A    between atoms: _108  and  _111
REMARK   46  A    between atoms: _111  and  _112
REMARK   47  A    between atoms: _112  and  _113
REMARK   48  A    between atoms: _116  and  _118
REMARK   49  A    between atoms: _118  and  _119
REMARK   50  A    between atoms: _122  and  _124
REMARK   51  A    between atoms: _124  and  _125
REMARK   52  A    between atoms: _124  and  _127
REMARK   53  A    between atoms: _127  and  _128
REMARK   54  A    between atoms: _131  and  _133
REMARK   55  A    between atoms: _133  and  _134
REMARK   56  A    between atoms: _136  and  _138
REMARK   57  A    between atoms: _138  and  _139
REMARK   58  A    between atoms: _142  and  _144
REMARK   59  A    between atoms: _144  and  _145
REMARK   60  A    between atoms: _144  and  _147
REMARK   61  A    between atoms: _147  and  _148
REMARK   62  A    between atoms: _148  and  _149
REMARK   63  A    between atoms: _149  and  _150
REMARK   64  A    between atoms: _159  and  _161
REMARK   65  A    between atoms: _161  and  _162
REMARK   66  A    between atoms: _161  and  _164
REMARK   67  A    between atoms: _164  and  _165
REMARK   68  A    between atoms: _168  and  _170
REMARK   69  A    between atoms: _170  and  _171
REMARK   70  A    between atoms: _170  and  _173
REMARK   71  A    between atoms: _173  and  _174
REMARK   72  A    between atoms: _177  and  _179
REMARK   73  A    between atoms: _179  and  _180
REMARK   74  A    between atoms: _179  and  _182
REMARK   75  A    between atoms: _182  and  _183
REMARK   76  A    between atoms: _183  and  _184
REMARK   77  A    between atoms: _184  and  _185
REMARK   78  A    between atoms: _185  and  _186
REMARK   79  A    between atoms: _190  and  _192
REMARK   80  A    between atoms: _192  and  _193
REMARK   81  A    between atoms: _192  and  _195
REMARK   82  A    between atoms: _195  and  _196
REMARK   83  A    between atoms: _201  and  _203
REMARK   84  A    between atoms: _203  and  _204
REMARK   85  A    between atoms: _206  and  _208
REMARK   86  A    between atoms: _208  and  _209
REMARK   87  A    between atoms: _208  and  _211
REMARK   88  A    between atoms: _211  and  _212
REMARK   89  A    between atoms: _215  and  _217
REMARK   90  A    between atoms: _217  and  _218
REMARK   91  A    between atoms: _217  and  _220
REMARK   92  A    between atoms: _220  and  _221
REMARK   93  A    between atoms: _224  and  _226
REMARK   94  A    between atoms: _226  and  _227
REMARK   95  A    between atoms: _226  and  _229
REMARK   96  A    between atoms: _229  and  _230
REMARK   97  A    between atoms: _233  and  _235
REMARK   98  A    between atoms: _235  and  _236
REMARK   99  A    between atoms: _235  and  _238
REMARK  100  A    between atoms: _238  and  _239
REMARK  101  A    between atoms: _239  and  _240
REMARK  102  A    between atoms: _240  and  _241
REMARK  103  A    between atoms: _250  and  _252
REMARK  104  A    between atoms: _252  and  _253
REMARK  105  A    between atoms: _255  and  _257
REMARK  106  A    between atoms: _257  and  _258
REMARK  107  A    between atoms: _257  and  _260
REMARK  108  A    between atoms: _260  and  _261
REMARK  109  A    between atoms: _264  and  _266
REMARK  110  A    between atoms: _266  and  _267
REMARK  111  A    between atoms: _266  and  _269
REMARK  112  A    between atoms: _269  and  _270
REMARK  113  A    between atoms: _272  and  _274
REMARK  114  A    between atoms: _274  and  _275
REMARK  115  A    between atoms: _274  and  _277
REMARK  116  A    between atoms: _277  and  _278
REMARK  117  A    between atoms: _282  and  MN_355
REMARK  118  A    between atoms: _283  and  _285
REMARK  119  A    between atoms: _285  and  _286
REMARK  120  A    between atoms: _289  and  _291
REMARK  121  A    between atoms: _291  and  _292
REMARK  122  A    between atoms: _291  and  _294
REMARK  123  A    between atoms: _294  and  _295
REMARK  124  A    between atoms: _300  and  _302
REMARK  125  A    between atoms: _302  and  _303
REMARK  126  A    between atoms: _302  and  _305
REMARK  127  A    between atoms: _305  and  _306
REMARK  128  A    between atoms: _306  and  _307
REMARK  129  A    between atoms: _309  and  _311
REMARK  130  A    between atoms: _311  and  _312
REMARK  131  A    between atoms: _311  and  _314
REMARK  132  A    between atoms: _314  and  _315
REMARK  133  A    between atoms: _315  and  _316
REMARK  134  A    between atoms: _316  and  _318
REMARK  135  A    between atoms: _318  and  MN_355
REMARK  136  A    between atoms: _319  and  _321
REMARK  137  A    between atoms: _321  and  _322
REMARK  138  A    between atoms: _321  and  _324
REMARK  139  A    between atoms: _324  and  _325
REMARK  140  A    between atoms: _327  and  _329
REMARK  141  A    between atoms: _329  and  _330
REMARK  142  A    between atoms: _329  and  _332
REMARK  143  A    between atoms: _332  and  _333
REMARK  144  A    between atoms: _336  and  _338
REMARK  145  A    between atoms: _338  and  _339
REMARK  146  A    between atoms: _338  and  _341
REMARK  147  A    between atoms: _341  and  _342
REMARK  148  A    between atoms: _342  and  _344
REMARK  149  A    between atoms: _344  and  MN_355
REMARK  150  A    between atoms: _345  and  _347
REMARK  151  A    between atoms: _347  and  _348
REMARK  152  A    between atoms: _347  and  _350
REMARK  153  A    between atoms: _350  and  _351
REMARK  154  A    between atoms: _351  and  _352
REMARK                            x       y       z     vdW  Elec       q    Type
REMARK                         _______ _______ _______ _____ _____    ______ ____
ROOT
ATOM      1  O   HOH     1     -12.007 -82.075  -5.372  0.00  0.00    +0.000 OA
ENDROOT
TORSDOF 0
REMARK  Name = ../refined-set-2016/4uma/4uma_pocket.pdb
REMARK  154 active torsions:
REMARK  status: ('A' for Active; 'I' for Inactive)
REMARK    1  A    between atoms: _1  and  _3
REMARK    2  A    between atoms: _3  and  _4
REMARK    3  A    between atoms: _7  and  _8
REMARK    4  A    between atoms: _13  and  _15
REMARK    5  A    between atoms: _15  and  _16
REMARK    6  A    between atoms: _15  and  _18
REMARK    7  A    between atoms: _18  and  _19
REMARK    8  A    between atoms: _19  and  MN_355
REMARK    9  A    between atoms: _20  and  _22
REMARK   10  A    between atoms: _22  and  _23
REMARK   11  A    between atoms: _22  and  _25
REMARK   12  A    between atoms: _25  and  _26
REMARK   13  A    between atoms: _28  and  _30
REMARK   14  A    between atoms: _30  and  _31
REMARK   15  A    between atoms: _30  and  _33
REMARK   16  A    between atoms: _33  and  _34
REMARK   17  A    between atoms: _34  and  _35
REMARK   18  A    between atoms: _35  and  _36
REMARK   19  A    between atoms: _45  and  _47
REMARK   20  A    between atoms: _47  and  _48
REMARK   21  A    between atoms: _47  and  _50
REMARK   22  A    between atoms: _50  and  _51
REMARK   23  A    between atoms: _56  and  _57
REMARK   24  A    between atoms: _59  and  _61
REMARK   25  A    between atoms: _61  and  _62
REMARK   26  A    between atoms: _61  and  _64
REMARK   27  A    between atoms: _64  and  _65
REMARK   28  A    between atoms: _65  and  _66
REMARK   29  A    between atoms: _69  and  _71
REMARK   30  A    between atoms: _71  and  _72
REMARK   31  A    between atoms: _71  and  _74
REMARK   32  A    between atoms: _74  and  _75
REMARK   33  A    between atoms: _75  and  _76
REMARK   34  A    between atoms: _76  and  _77
REMARK   35  A    between atoms: _77  and  _78
REMARK   36  A    between atoms: _83  and  _84
REMARK   37  A    between atoms: _89  and  _91
REMARK   38  A    between atoms: _91  and  _92
REMARK   39  A    between atoms: _91  and  _94
REMARK   40  A    between atoms: _94  and  _95
REMARK   41  A    between atoms: _95  and  _96
REMARK   42  A    between atoms: _96  and  _97
REMARK   43  A    between atoms: _106  and  _108
REMARK   44  A    between atoms: _108  and  _109
REMARK   45  A    between atoms: _108  and  _111
REMARK   46  A    between atoms: _111  and  _112
REMARK   47  A    between atoms: _112  and  _113
REMARK   48  A    between atoms: _116  and  _118
REMARK   49  A    between atoms: _118  and  _119
REMARK   50  A    between atoms: _122  and  _124
REMARK   51  A    between atoms: _124  and  _125
REMARK   52  A    between atoms: _124  and  _127
REMARK   53  A    between atoms: _127  and  _128
REMARK   54  A    between atoms: _131  and  _133
REMARK   55  A    between atoms: _133  and  _134
REMARK   56  A    between atoms: _136  and  _138
REMARK   57  A    between atoms: _138  and  _139
REMARK   58  A    between atoms: _142  and  _144
REMARK   59  A    between atoms: _144  and  _145
REMARK   60  A    between atoms: _144  and  _147
REMARK   61  A    between atoms: _147  and  _148
REMARK   62  A    between atoms: _148  and  _149
REMARK   63  A    between atoms: _149  and  _150
REMARK   64  A    between atoms: _159  and  _161
REMARK   65  A    between atoms: _161  and  _162
REMARK   66  A    between atoms: _161  and  _164
REMARK   67  A    between atoms: _164  and  _165
REMARK   68  A    between atoms: _168  and  _170
REMARK   69  A    between atoms: _170  and  _171
REMARK   70  A    between atoms: _170  and  _173
REMARK   71  A    between atoms: _173  and  _174
REMARK   72  A    between atoms: _177  and  _179
REMARK   73  A    between atoms: _179  and  _180
REMARK   74  A    between atoms: _179  and  _182
REMARK   75  A    between atoms: _182  and  _183
REMARK   76  A    between atoms: _183  and  _184
REMARK   77  A    between atoms: _184  and  _185
REMARK   78  A    between atoms: _185  and  _186
REMARK   79  A    between atoms: _190  and  _192
REMARK   80  A    between atoms: _192  and  _193
REMARK   81  A    between atoms: _192  and  _195
REMARK   82  A    between atoms: _195  and  _196
REMARK   83  A    between atoms: _201  and  _203
REMARK   84  A    between atoms: _203  and  _204
REMARK   85  A    between atoms: _206  and  _208
REMARK   86  A    between atoms: _208  and  _209
REMARK   87  A    between atoms: _208  and  _211
REMARK   88  A    between atoms: _211  and  _212
REMARK   89  A    between atoms: _215  and  _217
REMARK   90  A    between atoms: _217  and  _218
REMARK   91  A    between atoms: _217  and  _220
REMARK   92  A    between atoms: _220  and  _221
REMARK   93  A    between atoms: _224  and  _226
REMARK   94  A    between atoms: _226  and  _227
REMARK   95  A    between atoms: _226  and  _229
REMARK   96  A    between atoms: _229  and  _230
REMARK   97  A    between atoms: _233  and  _235
REMARK   98  A    between atoms: _235  and  _236
REMARK   99  A    between atoms: _235  and  _238
REMARK  100  A    between atoms: _238  and  _239
REMARK  101  A    between atoms: _239  and  _240
REMARK  102  A    between atoms: _240  and  _241
REMARK  103  A    between atoms: _250  and  _252
REMARK  104  A    between atoms: _252  and  _253
REMARK  105  A    between atoms: _255  and  _257
REMARK  106  A    between atoms: _257  and  _258
REMARK  107  A    between atoms: _257  and  _260
REMARK  108  A    between atoms: _260  and  _261
REMARK  109  A    between atoms: _264  and  _266
REMARK  110  A    between atoms: _266  and  _267
REMARK  111  A    between atoms: _266  and  _269
REMARK  112  A    between atoms: _269  and  _270
REMARK  113  A    between atoms: _272  and  _274
REMARK  114  A    between atoms: _274  and  _275
REMARK  115  A    between atoms: _274  and  _277
REMARK  116  A    between atoms: _277  and  _278
REMARK  117  A    between atoms: _282  and  MN_355
REMARK  118  A    between atoms: _283  and  _285
REMARK  119  A    between atoms: _285  and  _286
REMARK  120  A    between atoms: _289  and  _291
REMARK  121  A    between atoms: _291  and  _292
REMARK  122  A    between atoms: _291  and  _294
REMARK  123  A    between atoms: _294  and  _295
REMARK  124  A    between atoms: _300  and  _302
REMARK  125  A    between atoms: _302  and  _303
REMARK  126  A    between atoms: _302  and  _305
REMARK  127  A    between atoms: _305  and  _306
REMARK  128  A    between atoms: _306  and  _307
REMARK  129  A    between atoms: _309  and  _311
REMARK  130  A    between atoms: _311  and  _312
REMARK  131  A    between atoms: _311  and  _314
REMARK  132  A    between atoms: _314  and  _315
REMARK  133  A    between atoms: _315  and  _316
REMARK  134  A    between atoms: _316  and  _318
REMARK  135  A    between atoms: _318  and  MN_355
REMARK  136  A    between atoms: _319  and  _321
REMARK  137  A    between atoms: _321  and  _322
REMARK  138  A    between atoms: _321  and  _324
REMARK  139  A    between atoms: _324  and  _325
REMARK  140  A    between atoms: _327  and  _329
REMARK  141  A    between atoms: _329  and  _330
REMARK  142  A    between atoms: _329  and  _332
REMARK  143  A    between atoms: _332  and  _333
REMARK  144  A    between atoms: _336  and  _338
REMARK  145  A    between atoms: _338  and  _339
REMARK  146  A    between atoms: _338  and  _341
REMARK  147  A    between atoms: _341  and  _342
REMARK  148  A    between atoms: _342  and  _344
REMARK  149  A    between atoms: _344  and  MN_355
REMARK  150  A    between atoms: _345  and  _347
REMARK  151  A    between atoms: _347  and  _348
REMARK  152  A    between atoms: _347  and  _350
REMARK  153  A    between atoms: _350  and  _351
REMARK  154  A    between atoms: _351  and  _352
REMARK                            x       y       z     vdW  Elec       q    Type
REMARK                         _______ _______ _______ _____ _____    ______ ____
ROOT
ATOM      1  O   HOH     1     -12.401 -82.055  -1.486  0.00  0.00    +0.000 OA
ENDROOT
TORSDOF 0
REMARK  Name = ../refined-set-2016/4uma/4uma_pocket.pdb
REMARK  154 active torsions:
REMARK  status: ('A' for Active; 'I' for Inactive)
REMARK    1  A    between atoms: _1  and  _3
REMARK    2  A    between atoms: _3  and  _4
REMARK    3  A    between atoms: _7  and  _8
REMARK    4  A    between atoms: _13  and  _15
REMARK    5  A    between atoms: _15  and  _16
REMARK    6  A    between atoms: _15  and  _18
REMARK    7  A    between atoms: _18  and  _19
REMARK    8  A    between atoms: _19  and  MN_355
REMARK    9  A    between atoms: _20  and  _22
REMARK   10  A    between atoms: _22  and  _23
REMARK   11  A    between atoms: _22  and  _25
REMARK   12  A    between atoms: _25  and  _26
REMARK   13  A    between atoms: _28  and  _30
REMARK   14  A    between atoms: _30  and  _31
REMARK   15  A    between atoms: _30  and  _33
REMARK   16  A    between atoms: _33  and  _34
REMARK   17  A    between atoms: _34  and  _35
REMARK   18  A    between atoms: _35  and  _36
REMARK   19  A    between atoms: _45  and  _47
REMARK   20  A    between atoms: _47  and  _48
REMARK   21  A    between atoms: _47  and  _50
REMARK   22  A    between atoms: _50  and  _51
REMARK   23  A    between atoms: _56  and  _57
REMARK   24  A    between atoms: _59  and  _61
REMARK   25  A    between atoms: _61  and  _62
REMARK   26  A    between atoms: _61  and  _64
REMARK   27  A    between atoms: _64  and  _65
REMARK   28  A    between atoms: _65  and  _66
REMARK   29  A    between atoms: _69  and  _71
REMARK   30  A    between atoms: _71  and  _72
REMARK   31  A    between atoms: _71  and  _74
REMARK   32  A    between atoms: _74  and  _75
REMARK   33  A    between atoms: _75  and  _76
REMARK   34  A    between atoms: _76  and  _77
REMARK   35  A    between atoms: _77  and  _78
REMARK   36  A    between atoms: _83  and  _84
REMARK   37  A    between atoms: _89  and  _91
REMARK   38  A    between atoms: _91  and  _92
REMARK   39  A    between atoms: _91  and  _94
REMARK   40  A    between atoms: _94  and  _95
REMARK   41  A    between atoms: _95  and  _96
REMARK   42  A    between atoms: _96  and  _97
REMARK   43  A    between atoms: _106  and  _108
REMARK   44  A    between atoms: _108  and  _109
REMARK   45  A    between atoms: _108  and  _111
REMARK   46  A    between atoms: _111  and  _112
REMARK   47  A    between atoms: _112  and  _113
REMARK   48  A    between atoms: _116  and  _118
REMARK   49  A    between atoms: _118  and  _119
REMARK   50  A    between atoms: _122  and  _124
REMARK   51  A    between atoms: _124  and  _125
REMARK   52  A    between atoms: _124  and  _127
REMARK   53  A    between atoms: _127  and  _128
REMARK   54  A    between atoms: _131  and  _133
REMARK   55  A    between atoms: _133  and  _134
REMARK   56  A    between atoms: _136  and  _138
REMARK   57  A    between atoms: _138  and  _139
REMARK   58  A    between atoms: _142  and  _144
REMARK   59  A    between atoms: _144  and  _145
REMARK   60  A    between atoms: _144  and  _147
REMARK   61  A    between atoms: _147  and  _148
REMARK   62  A    between atoms: _148  and  _149
REMARK   63  A    between atoms: _149  and  _150
REMARK   64  A    between atoms: _159  and  _161
REMARK   65  A    between atoms: _161  and  _162
REMARK   66  A    between atoms: _161  and  _164
REMARK   67  A    between atoms: _164  and  _165
REMARK   68  A    between atoms: _168  and  _170
REMARK   69  A    between atoms: _170  and  _171
REMARK   70  A    between atoms: _170  and  _173
REMARK   71  A    between atoms: _173  and  _174
REMARK   72  A    between atoms: _177  and  _179
REMARK   73  A    between atoms: _179  and  _180
REMARK   74  A    between atoms: _179  and  _182
REMARK   75  A    between atoms: _182  and  _183
REMARK   76  A    between atoms: _183  and  _184
REMARK   77  A    between atoms: _184  and  _185
REMARK   78  A    between atoms: _185  and  _186
REMARK   79  A    between atoms: _190  and  _192
REMARK   80  A    between atoms: _192  and  _193
REMARK   81  A    between atoms: _192  and  _195
REMARK   82  A    between atoms: _195  and  _196
REMARK   83  A    between atoms: _201  and  _203
REMARK   84  A    between atoms: _203  and  _204
REMARK   85  A    between atoms: _206  and  _208
REMARK   86  A    between atoms: _208  and  _209
REMARK   87  A    between atoms: _208  and  _211
REMARK   88  A    between atoms: _211  and  _212
REMARK   89  A    between atoms: _215  and  _217
REMARK   90  A    between atoms: _217  and  _218
REMARK   91  A    between atoms: _217  and  _220
REMARK   92  A    between atoms: _220  and  _221
REMARK   93  A    between atoms: _224  and  _226
REMARK   94  A    between atoms: _226  and  _227
REMARK   95  A    between atoms: _226  and  _229
REMARK   96  A    between atoms: _229  and  _230
REMARK   97  A    between atoms: _233  and  _235
REMARK   98  A    between atoms: _235  and  _236
REMARK   99  A    between atoms: _235  and  _238
REMARK  100  A    between atoms: _238  and  _239
REMARK  101  A    between atoms: _239  and  _240
REMARK  102  A    between atoms: _240  and  _241
REMARK  103  A    between atoms: _250  and  _252
REMARK  104  A    between atoms: _252  and  _253
REMARK  105  A    between atoms: _255  and  _257
REMARK  106  A    between atoms: _257  and  _258
REMARK  107  A    between atoms: _257  and  _260
REMARK  108  A    between atoms: _260  and  _261
REMARK  109  A    between atoms: _264  and  _266
REMARK  110  A    between atoms: _266  and  _267
REMARK  111  A    between atoms: _266  and  _269
REMARK  112  A    between atoms: _269  and  _270
REMARK  113  A    between atoms: _272  and  _274
REMARK  114  A    between atoms: _274  and  _275
REMARK  115  A    between atoms: _274  and  _277
REMARK  116  A    between atoms: _277  and  _278
REMARK  117  A    between atoms: _282  and  MN_355
REMARK  118  A    between atoms: _283  and  _285
REMARK  119  A    between atoms: _285  and  _286
REMARK  120  A    between atoms: _289  and  _291
REMARK  121  A    between atoms: _291  and  _292
REMARK  122  A    between atoms: _291  and  _294
REMARK  123  A    between atoms: _294  and  _295
REMARK  124  A    between atoms: _300  and  _302
REMARK  125  A    between atoms: _302  and  _303
REMARK  126  A    between atoms: _302  and  _305
REMARK  127  A    between atoms: _305  and  _306
REMARK  128  A    between atoms: _306  and  _307
REMARK  129  A    between atoms: _309  and  _311
REMARK  130  A    between atoms: _311  and  _312
REMARK  131  A    between atoms: _311  and  _314
REMARK  132  A    between atoms: _314  and  _315
REMARK  133  A    between atoms: _315  and  _316
REMARK  134  A    between atoms: _316  and  _318
REMARK  135  A    between atoms: _318  and  MN_355
REMARK  136  A    between atoms: _319  and  _321
REMARK  137  A    between atoms: _321  and  _322
REMARK  138  A    between atoms: _321  and  _324
REMARK  139  A    between atoms: _324  and  _325
REMARK  140  A    between atoms: _327  and  _329
REMARK  141  A    between atoms: _329  and  _330
REMARK  142  A    between atoms: _329  and  _332
REMARK  143  A    between atoms: _332  and  _333
REMARK  144  A    between atoms: _336  and  _338
REMARK  145  A    between atoms: _338  and  _339
REMARK  146  A    between atoms: _338  and  _341
REMARK  147  A    between atoms: _341  and  _342
REMARK  148  A    between atoms: _342  and  _344
REMARK  149  A    between atoms: _344  and  MN_355
REMARK  150  A    between atoms: _345  and  _347
REMARK  151  A    between atoms: _347  and  _348
REMARK  152  A    between atoms: _347  and  _350
REMARK  153  A    between atoms: _350  and  _351
REMARK  154  A    between atoms: _351  and  _352
REMARK                            x       y       z     vdW  Elec       q    Type
REMARK                         _______ _______ _______ _____ _____    ______ ____
ROOT
ATOM      1  O   HOH     1     -11.566 -83.992   0.176  0.00  0.00    +0.000 OA
ENDROOT
TORSDOF 0
REMARK  Name = ../refined-set-2016/4uma/4uma_pocket.pdb
REMARK  154 active torsions:
REMARK  status: ('A' for Active; 'I' for Inactive)
REMARK    1  A    between atoms: _1  and  _3
REMARK    2  A    between atoms: _3  and  _4
REMARK    3  A    between atoms: _7  and  _8
REMARK    4  A    between atoms: _13  and  _15
REMARK    5  A    between atoms: _15  and  _16
REMARK    6  A    between atoms: _15  and  _18
REMARK    7  A    between atoms: _18  and  _19
REMARK    8  A    between atoms: _19  and  MN_355
REMARK    9  A    between atoms: _20  and  _22
REMARK   10  A    between atoms: _22  and  _23
REMARK   11  A    between atoms: _22  and  _25
REMARK   12  A    between atoms: _25  and  _26
REMARK   13  A    between atoms: _28  and  _30
REMARK   14  A    between atoms: _30  and  _31
REMARK   15  A    between atoms: _30  and  _33
REMARK   16  A    between atoms: _33  and  _34
REMARK   17  A    between atoms: _34  and  _35
REMARK   18  A    between atoms: _35  and  _36
REMARK   19  A    between atoms: _45  and  _47
REMARK   20  A    between atoms: _47  and  _48
REMARK   21  A    between atoms: _47  and  _50
REMARK   22  A    between atoms: _50  and  _51
REMARK   23  A    between atoms: _56  and  _57
REMARK   24  A    between atoms: _59  and  _61
REMARK   25  A    between atoms: _61  and  _62
REMARK   26  A    between atoms: _61  and  _64
REMARK   27  A    between atoms: _64  and  _65
REMARK   28  A    between atoms: _65  and  _66
REMARK   29  A    between atoms: _69  and  _71
REMARK   30  A    between atoms: _71  and  _72
REMARK   31  A    between atoms: _71  and  _74
REMARK   32  A    between atoms: _74  and  _75
REMARK   33  A    between atoms: _75  and  _76
REMARK   34  A    between atoms: _76  and  _77
REMARK   35  A    between atoms: _77  and  _78
REMARK   36  A    between atoms: _83  and  _84
REMARK   37  A    between atoms: _89  and  _91
REMARK   38  A    between atoms: _91  and  _92
REMARK   39  A    between atoms: _91  and  _94
REMARK   40  A    between atoms: _94  and  _95
REMARK   41  A    between atoms: _95  and  _96
REMARK   42  A    between atoms: _96  and  _97
REMARK   43  A    between atoms: _106  and  _108
REMARK   44  A    between atoms: _108  and  _109
REMARK   45  A    between atoms: _108  and  _111
REMARK   46  A    between atoms: _111  and  _112
REMARK   47  A    between atoms: _112  and  _113
REMARK   48  A    between atoms: _116  and  _118
REMARK   49  A    between atoms: _118  and  _119
REMARK   50  A    between atoms: _122  and  _124
REMARK   51  A    between atoms: _124  and  _125
REMARK   52  A    between atoms: _124  and  _127
REMARK   53  A    between atoms: _127  and  _128
REMARK   54  A    between atoms: _131  and  _133
REMARK   55  A    between atoms: _133  and  _134
REMARK   56  A    between atoms: _136  and  _138
REMARK   57  A    between atoms: _138  and  _139
REMARK   58  A    between atoms: _142  and  _144
REMARK   59  A    between atoms: _144  and  _145
REMARK   60  A    between atoms: _144  and  _147
REMARK   61  A    between atoms: _147  and  _148
REMARK   62  A    between atoms: _148  and  _149
REMARK   63  A    between atoms: _149  and  _150
REMARK   64  A    between atoms: _159  and  _161
REMARK   65  A    between atoms: _161  and  _162
REMARK   66  A    between atoms: _161  and  _164
REMARK   67  A    between atoms: _164  and  _165
REMARK   68  A    between atoms: _168  and  _170
REMARK   69  A    between atoms: _170  and  _171
REMARK   70  A    between atoms: _170  and  _173
REMARK   71  A    between atoms: _173  and  _174
REMARK   72  A    between atoms: _177  and  _179
REMARK   73  A    between atoms: _179  and  _180
REMARK   74  A    between atoms: _179  and  _182
REMARK   75  A    between atoms: _182  and  _183
REMARK   76  A    between atoms: _183  and  _184
REMARK   77  A    between atoms: _184  and  _185
REMARK   78  A    between atoms: _185  and  _186
REMARK   79  A    between atoms: _190  and  _192
REMARK   80  A    between atoms: _192  and  _193
REMARK   81  A    between atoms: _192  and  _195
REMARK   82  A    between atoms: _195  and  _196
REMARK   83  A    between atoms: _201  and  _203
REMARK   84  A    between atoms: _203  and  _204
REMARK   85  A    between atoms: _206  and  _208
REMARK   86  A    between atoms: _208  and  _209
REMARK   87  A    between atoms: _208  and  _211
REMARK   88  A    between atoms: _211  and  _212
REMARK   89  A    between atoms: _215  and  _217
REMARK   90  A    between atoms: _217  and  _218
REMARK   91  A    between atoms: _217  and  _220
REMARK   92  A    between atoms: _220  and  _221
REMARK   93  A    between atoms: _224  and  _226
REMARK   94  A    between atoms: _226  and  _227
REMARK   95  A    between atoms: _226  and  _229
REMARK   96  A    between atoms: _229  and  _230
REMARK   97  A    between atoms: _233  and  _235
REMARK   98  A    between atoms: _235  and  _236
REMARK   99  A    between atoms: _235  and  _238
REMARK  100  A    between atoms: _238  and  _239
REMARK  101  A    between atoms: _239  and  _240
REMARK  102  A    between atoms: _240  and  _241
REMARK  103  A    between atoms: _250  and  _252
REMARK  104  A    between atoms: _252  and  _253
REMARK  105  A    between atoms: _255  and  _257
REMARK  106  A    between atoms: _257  and  _258
REMARK  107  A    between atoms: _257  and  _260
REMARK  108  A    between atoms: _260  and  _261
REMARK  109  A    between atoms: _264  and  _266
REMARK  110  A    between atoms: _266  and  _267
REMARK  111  A    between atoms: _266  and  _269
REMARK  112  A    between atoms: _269  and  _270
REMARK  113  A    between atoms: _272  and  _274
REMARK  114  A    between atoms: _274  and  _275
REMARK  115  A    between atoms: _274  and  _277
REMARK  116  A    between atoms: _277  and  _278
REMARK  117  A    between atoms: _282  and  MN_355
REMARK  118  A    between atoms: _283  and  _285
REMARK  119  A    between atoms: _285  and  _286
REMARK  120  A    between atoms: _289  and  _291
REMARK  121  A    between atoms: _291  and  _292
REMARK  122  A    between atoms: _291  and  _294
REMARK  123  A    between atoms: _294  and  _295
REMARK  124  A    between atoms: _300  and  _302
REMARK  125  A    between atoms: _302  and  _303
REMARK  126  A    between atoms: _302  and  _305
REMARK  127  A    between atoms: _305  and  _306
REMARK  128  A    between atoms: _306  and  _307
REMARK  129  A    between atoms: _309  and  _311
REMARK  130  A    between atoms: _311  and  _312
REMARK  131  A    between atoms: _311  and  _314
REMARK  132  A    between atoms: _314  and  _315
REMARK  133  A    between atoms: _315  and  _316
REMARK  134  A    between atoms: _316  and  _318
REMARK  135  A    between atoms: _318  and  MN_355
REMARK  136  A    between atoms: _319  and  _321
REMARK  137  A    between atoms: _321  and  _322
REMARK  138  A    between atoms: _321  and  _324
REMARK  139  A    between atoms: _324  and  _325
REMARK  140  A    between atoms: _327  and  _329
REMARK  141  A    between atoms: _329  and  _330
REMARK  142  A    between atoms: _329  and  _332
REMARK  143  A    between atoms: _332  and  _333
REMARK  144  A    between atoms: _336  and  _338
REMARK  145  A    between atoms: _338  and  _339
REMARK  146  A    between atoms: _338  and  _341
REMARK  147  A    between atoms: _341  and  _342
REMARK  148  A    between atoms: _342  and  _344
REMARK  149  A    between atoms: _344  and  MN_355
REMARK  150  A    between atoms: _345  and  _347
REMARK  151  A    between atoms: _347  and  _348
REMARK  152  A    between atoms: _347  and  _350
REMARK  153  A    between atoms: _350  and  _351
REMARK  154  A    between atoms: _351  and  _352
REMARK                            x       y       z     vdW  Elec       q    Type
REMARK                         _______ _______ _______ _____ _____    ______ ____
ROOT
ATOM      1  O   HOH     1     -17.265 -87.252   2.199  0.00  0.00    +0.000 OA
ENDROOT
TORSDOF 0
REMARK  Name = ../refined-set-2016/4uma/4uma_pocket.pdb
REMARK  154 active torsions:
REMARK  status: ('A' for Active; 'I' for Inactive)
REMARK    1  A    between atoms: _1  and  _3
REMARK    2  A    between atoms: _3  and  _4
REMARK    3  A    between atoms: _7  and  _8
REMARK    4  A    between atoms: _13  and  _15
REMARK    5  A    between atoms: _15  and  _16
REMARK    6  A    between atoms: _15  and  _18
REMARK    7  A    between atoms: _18  and  _19
REMARK    8  A    between atoms: _19  and  MN_355
REMARK    9  A    between atoms: _20  and  _22
REMARK   10  A    between atoms: _22  and  _23
REMARK   11  A    between atoms: _22  and  _25
REMARK   12  A    between atoms: _25  and  _26
REMARK   13  A    between atoms: _28  and  _30
REMARK   14  A    between atoms: _30  and  _31
REMARK   15  A    between atoms: _30  and  _33
REMARK   16  A    between atoms: _33  and  _34
REMARK   17  A    between atoms: _34  and  _35
REMARK   18  A    between atoms: _35  and  _36
REMARK   19  A    between atoms: _45  and  _47
REMARK   20  A    between atoms: _47  and  _48
REMARK   21  A    between atoms: _47  and  _50
REMARK   22  A    between atoms: _50  and  _51
REMARK   23  A    between atoms: _56  and  _57
REMARK   24  A    between atoms: _59  and  _61
REMARK   25  A    between atoms: _61  and  _62
REMARK   26  A    between atoms: _61  and  _64
REMARK   27  A    between atoms: _64  and  _65
REMARK   28  A    between atoms: _65  and  _66
REMARK   29  A    between atoms: _69  and  _71
REMARK   30  A    between atoms: _71  and  _72
REMARK   31  A    between atoms: _71  and  _74
REMARK   32  A    between atoms: _74  and  _75
REMARK   33  A    between atoms: _75  and  _76
REMARK   34  A    between atoms: _76  and  _77
REMARK   35  A    between atoms: _77  and  _78
REMARK   36  A    between atoms: _83  and  _84
REMARK   37  A    between atoms: _89  and  _91
REMARK   38  A    between atoms: _91  and  _92
REMARK   39  A    between atoms: _91  and  _94
REMARK   40  A    between atoms: _94  and  _95
REMARK   41  A    between atoms: _95  and  _96
REMARK   42  A    between atoms: _96  and  _97
REMARK   43  A    between atoms: _106  and  _108
REMARK   44  A    between atoms: _108  and  _109
REMARK   45  A    between atoms: _108  and  _111
REMARK   46  A    between atoms: _111  and  _112
REMARK   47  A    between atoms: _112  and  _113
REMARK   48  A    between atoms: _116  and  _118
REMARK   49  A    between atoms: _118  and  _119
REMARK   50  A    between atoms: _122  and  _124
REMARK   51  A    between atoms: _124  and  _125
REMARK   52  A    between atoms: _124  and  _127
REMARK   53  A    between atoms: _127  and  _128
REMARK   54  A    between atoms: _131  and  _133
REMARK   55  A    between atoms: _133  and  _134
REMARK   56  A    between atoms: _136  and  _138
REMARK   57  A    between atoms: _138  and  _139
REMARK   58  A    between atoms: _142  and  _144
REMARK   59  A    between atoms: _144  and  _145
REMARK   60  A    between atoms: _144  and  _147
REMARK   61  A    between atoms: _147  and  _148
REMARK   62  A    between atoms: _148  and  _149
REMARK   63  A    between atoms: _149  and  _150
REMARK   64  A    between atoms: _159  and  _161
REMARK   65  A    between atoms: _161  and  _162
REMARK   66  A    between atoms: _161  and  _164
REMARK   67  A    between atoms: _164  and  _165
REMARK   68  A    between atoms: _168  and  _170
REMARK   69  A    between atoms: _170  and  _171
REMARK   70  A    between atoms: _170  and  _173
REMARK   71  A    between atoms: _173  and  _174
REMARK   72  A    between atoms: _177  and  _179
REMARK   73  A    between atoms: _179  and  _180
REMARK   74  A    between atoms: _179  and  _182
REMARK   75  A    between atoms: _182  and  _183
REMARK   76  A    between atoms: _183  and  _184
REMARK   77  A    between atoms: _184  and  _185
REMARK   78  A    between atoms: _185  and  _186
REMARK   79  A    between atoms: _190  and  _192
REMARK   80  A    between atoms: _192  and  _193
REMARK   81  A    between atoms: _192  and  _195
REMARK   82  A    between atoms: _195  and  _196
REMARK   83  A    between atoms: _201  and  _203
REMARK   84  A    between atoms: _203  and  _204
REMARK   85  A    between atoms: _206  and  _208
REMARK   86  A    between atoms: _208  and  _209
REMARK   87  A    between atoms: _208  and  _211
REMARK   88  A    between atoms: _211  and  _212
REMARK   89  A    between atoms: _215  and  _217
REMARK   90  A    between atoms: _217  and  _218
REMARK   91  A    between atoms: _217  and  _220
REMARK   92  A    between atoms: _220  and  _221
REMARK   93  A    between atoms: _224  and  _226
REMARK   94  A    between atoms: _226  and  _227
REMARK   95  A    between atoms: _226  and  _229
REMARK   96  A    between atoms: _229  and  _230
REMARK   97  A    between atoms: _233  and  _235
REMARK   98  A    between atoms: _235  and  _236
REMARK   99  A    between atoms: _235  and  _238
REMARK  100  A    between atoms: _238  and  _239
REMARK  101  A    between atoms: _239  and  _240
REMARK  102  A    between atoms: _240  and  _241
REMARK  103  A    between atoms: _250  and  _252
REMARK  104  A    between atoms: _252  and  _253
REMARK  105  A    between atoms: _255  and  _257
REMARK  106  A    between atoms: _257  and  _258
REMARK  107  A    between atoms: _257  and  _260
REMARK  108  A    between atoms: _260  and  _261
REMARK  109  A    between atoms: _264  and  _266
REMARK  110  A    between atoms: _266  and  _267
REMARK  111  A    between atoms: _266  and  _269
REMARK  112  A    between atoms: _269  and  _270
REMARK  113  A    between atoms: _272  and  _274
REMARK  114  A    between atoms: _274  and  _275
REMARK  115  A    between atoms: _274  and  _277
REMARK  116  A    between atoms: _277  and  _278
REMARK  117  A    between atoms: _282  and  MN_355
REMARK  118  A    between atoms: _283  and  _285
REMARK  119  A    between atoms: _285  and  _286
REMARK  120  A    between atoms: _289  and  _291
REMARK  121  A    between atoms: _291  and  _292
REMARK  122  A    between atoms: _291  and  _294
REMARK  123  A    between atoms: _294  and  _295
REMARK  124  A    between atoms: _300  and  _302
REMARK  125  A    between atoms: _302  and  _303
REMARK  126  A    between atoms: _302  and  _305
REMARK  127  A    between atoms: _305  and  _306
REMARK  128  A    between atoms: _306  and  _307
REMARK  129  A    between atoms: _309  and  _311
REMARK  130  A    between atoms: _311  and  _312
REMARK  131  A    between atoms: _311  and  _314
REMARK  132  A    between atoms: _314  and  _315
REMARK  133  A    between atoms: _315  and  _316
REMARK  134  A    between atoms: _316  and  _318
REMARK  135  A    between atoms: _318  and  MN_355
REMARK  136  A    between atoms: _319  and  _321
REMARK  137  A    between atoms: _321  and  _322
REMARK  138  A    between atoms: _321  and  _324
REMARK  139  A    between atoms: _324  and  _325
REMARK  140  A    between atoms: _327  and  _329
REMARK  141  A    between atoms: _329  and  _330
REMARK  142  A    between atoms: _329  and  _332
REMARK  143  A    between atoms: _332  and  _333
REMARK  144  A    between atoms: _336  and  _338
REMARK  145  A    between atoms: _338  and  _339
REMARK  146  A    between atoms: _338  and  _341
REMARK  147  A    between atoms: _341  and  _342
REMARK  148  A    between atoms: _342  and  _344
REMARK  149  A    between atoms: _344  and  MN_355
REMARK  150  A    between atoms: _345  and  _347
REMARK  151  A    between atoms: _347  and  _348
REMARK  152  A    between atoms: _347  and  _350
REMARK  153  A    between atoms: _350  and  _351
REMARK  154  A    between atoms: _351  and  _352
REMARK                            x       y       z     vdW  Elec       q    Type
REMARK                         _______ _______ _______ _____ _____    ______ ____
ROOT
ATOM      1  O   HOH     1     -14.782 -83.106   6.378  0.00  0.00    +0.000 OA
ENDROOT
TORSDOF 0
REMARK  Name = ../refined-set-2016/4uma/4uma_pocket.pdb
REMARK  154 active torsions:
REMARK  status: ('A' for Active; 'I' for Inactive)
REMARK    1  A    between atoms: _1  and  _3
REMARK    2  A    between atoms: _3  and  _4
REMARK    3  A    between atoms: _7  and  _8
REMARK    4  A    between atoms: _13  and  _15
REMARK    5  A    between atoms: _15  and  _16
REMARK    6  A    between atoms: _15  and  _18
REMARK    7  A    between atoms: _18  and  _19
REMARK    8  A    between atoms: _19  and  MN_355
REMARK    9  A    between atoms: _20  and  _22
REMARK   10  A    between atoms: _22  and  _23
REMARK   11  A    between atoms: _22  and  _25
REMARK   12  A    between atoms: _25  and  _26
REMARK   13  A    between atoms: _28  and  _30
REMARK   14  A    between atoms: _30  and  _31
REMARK   15  A    between atoms: _30  and  _33
REMARK   16  A    between atoms: _33  and  _34
REMARK   17  A    between atoms: _34  and  _35
REMARK   18  A    between atoms: _35  and  _36
REMARK   19  A    between atoms: _45  and  _47
REMARK   20  A    between atoms: _47  and  _48
REMARK   21  A    between atoms: _47  and  _50
REMARK   22  A    between atoms: _50  and  _51
REMARK   23  A    between atoms: _56  and  _57
REMARK   24  A    between atoms: _59  and  _61
REMARK   25  A    between atoms: _61  and  _62
REMARK   26  A    between atoms: _61  and  _64
REMARK   27  A    between atoms: _64  and  _65
REMARK   28  A    between atoms: _65  and  _66
REMARK   29  A    between atoms: _69  and  _71
REMARK   30  A    between atoms: _71  and  _72
REMARK   31  A    between atoms: _71  and  _74
REMARK   32  A    between atoms: _74  and  _75
REMARK   33  A    between atoms: _75  and  _76
REMARK   34  A    between atoms: _76  and  _77
REMARK   35  A    between atoms: _77  and  _78
REMARK   36  A    between atoms: _83  and  _84
REMARK   37  A    between atoms: _89  and  _91
REMARK   38  A    between atoms: _91  and  _92
REMARK   39  A    between atoms: _91  and  _94
REMARK   40  A    between atoms: _94  and  _95
REMARK   41  A    between atoms: _95  and  _96
REMARK   42  A    between atoms: _96  and  _97
REMARK   43  A    between atoms: _106  and  _108
REMARK   44  A    between atoms: _108  and  _109
REMARK   45  A    between atoms: _108  and  _111
REMARK   46  A    between atoms: _111  and  _112
REMARK   47  A    between atoms: _112  and  _113
REMARK   48  A    between atoms: _116  and  _118
REMARK   49  A    between atoms: _118  and  _119
REMARK   50  A    between atoms: _122  and  _124
REMARK   51  A    between atoms: _124  and  _125
REMARK   52  A    between atoms: _124  and  _127
REMARK   53  A    between atoms: _127  and  _128
REMARK   54  A    between atoms: _131  and  _133
REMARK   55  A    between atoms: _133  and  _134
REMARK   56  A    between atoms: _136  and  _138
REMARK   57  A    between atoms: _138  and  _139
REMARK   58  A    between atoms: _142  and  _144
REMARK   59  A    between atoms: _144  and  _145
REMARK   60  A    between atoms: _144  and  _147
REMARK   61  A    between atoms: _147  and  _148
REMARK   62  A    between atoms: _148  and  _149
REMARK   63  A    between atoms: _149  and  _150
REMARK   64  A    between atoms: _159  and  _161
REMARK   65  A    between atoms: _161  and  _162
REMARK   66  A    between atoms: _161  and  _164
REMARK   67  A    between atoms: _164  and  _165
REMARK   68  A    between atoms: _168  and  _170
REMARK   69  A    between atoms: _170  and  _171
REMARK   70  A    between atoms: _170  and  _173
REMARK   71  A    between atoms: _173  and  _174
REMARK   72  A    between atoms: _177  and  _179
REMARK   73  A    between atoms: _179  and  _180
REMARK   74  A    between atoms: _179  and  _182
REMARK   75  A    between atoms: _182  and  _183
REMARK   76  A    between atoms: _183  and  _184
REMARK   77  A    between atoms: _184  and  _185
REMARK   78  A    between atoms: _185  and  _186
REMARK   79  A    between atoms: _190  and  _192
REMARK   80  A    between atoms: _192  and  _193
REMARK   81  A    between atoms: _192  and  _195
REMARK   82  A    between atoms: _195  and  _196
REMARK   83  A    between atoms: _201  and  _203
REMARK   84  A    between atoms: _203  and  _204
REMARK   85  A    between atoms: _206  and  _208
REMARK   86  A    between atoms: _208  and  _209
REMARK   87  A    between atoms: _208  and  _211
REMARK   88  A    between atoms: _211  and  _212
REMARK   89  A    between atoms: _215  and  _217
REMARK   90  A    between atoms: _217  and  _218
REMARK   91  A    between atoms: _217  and  _220
REMARK   92  A    between atoms: _220  and  _221
REMARK   93  A    between atoms: _224  and  _226
REMARK   94  A    between atoms: _226  and  _227
REMARK   95  A    between atoms: _226  and  _229
REMARK   96  A    between atoms: _229  and  _230
REMARK   97  A    between atoms: _233  and  _235
REMARK   98  A    between atoms: _235  and  _236
REMARK   99  A    between atoms: _235  and  _238
REMARK  100  A    between atoms: _238  and  _239
REMARK  101  A    between atoms: _239  and  _240
REMARK  102  A    between atoms: _240  and  _241
REMARK  103  A    between atoms: _250  and  _252
REMARK  104  A    between atoms: _252  and  _253
REMARK  105  A    between atoms: _255  and  _257
REMARK  106  A    between atoms: _257  and  _258
REMARK  107  A    between atoms: _257  and  _260
REMARK  108  A    between atoms: _260  and  _261
REMARK  109  A    between atoms: _264  and  _266
REMARK  110  A    between atoms: _266  and  _267
REMARK  111  A    between atoms: _266  and  _269
REMARK  112  A    between atoms: _269  and  _270
REMARK  113  A    between atoms: _272  and  _274
REMARK  114  A    between atoms: _274  and  _275
REMARK  115  A    between atoms: _274  and  _277
REMARK  116  A    between atoms: _277  and  _278
REMARK  117  A    between atoms: _282  and  MN_355
REMARK  118  A    between atoms: _283  and  _285
REMARK  119  A    between atoms: _285  and  _286
REMARK  120  A    between atoms: _289  and  _291
REMARK  121  A    between atoms: _291  and  _292
REMARK  122  A    between atoms: _291  and  _294
REMARK  123  A    between atoms: _294  and  _295
REMARK  124  A    between atoms: _300  and  _302
REMARK  125  A    between atoms: _302  and  _303
REMARK  126  A    between atoms: _302  and  _305
REMARK  127  A    between atoms: _305  and  _306
REMARK  128  A    between atoms: _306  and  _307
REMARK  129  A    between atoms: _309  and  _311
REMARK  130  A    between atoms: _311  and  _312
REMARK  131  A    between atoms: _311  and  _314
REMARK  132  A    between atoms: _314  and  _315
REMARK  133  A    between atoms: _315  and  _316
REMARK  134  A    between atoms: _316  and  _318
REMARK  135  A    between atoms: _318  and  MN_355
REMARK  136  A    between atoms: _319  and  _321
REMARK  137  A    between atoms: _321  and  _322
REMARK  138  A    between atoms: _321  and  _324
REMARK  139  A    between atoms: _324  and  _325
REMARK  140  A    between atoms: _327  and  _329
REMARK  141  A    between atoms: _329  and  _330
REMARK  142  A    between atoms: _329  and  _332
REMARK  143  A    between atoms: _332  and  _333
REMARK  144  A    between atoms: _336  and  _338
REMARK  145  A    between atoms: _338  and  _339
REMARK  146  A    between atoms: _338  and  _341
REMARK  147  A    between atoms: _341  and  _342
REMARK  148  A    between atoms: _342  and  _344
REMARK  149  A    between atoms: _344  and  MN_355
REMARK  150  A    between atoms: _345  and  _347
REMARK  151  A    between atoms: _347  and  _348
REMARK  152  A    between atoms: _347  and  _350
REMARK  153  A    between atoms: _350  and  _351
REMARK  154  A    between atoms: _351  and  _352
REMARK                            x       y       z     vdW  Elec       q    Type
REMARK                         _______ _______ _______ _____ _____    ______ ____
ROOT
ATOM      1  O   HOH     1      -8.155 -85.588   4.527  0.00  0.00    +0.000 OA
ENDROOT
TORSDOF 0
REMARK  Name = ../refined-set-2016/4uma/4uma_pocket.pdb
REMARK  154 active torsions:
REMARK  status: ('A' for Active; 'I' for Inactive)
REMARK    1  A    between atoms: _1  and  _3
REMARK    2  A    between atoms: _3  and  _4
REMARK    3  A    between atoms: _7  and  _8
REMARK    4  A    between atoms: _13  and  _15
REMARK    5  A    between atoms: _15  and  _16
REMARK    6  A    between atoms: _15  and  _18
REMARK    7  A    between atoms: _18  and  _19
REMARK    8  A    between atoms: _19  and  MN_355
REMARK    9  A    between atoms: _20  and  _22
REMARK   10  A    between atoms: _22  and  _23
REMARK   11  A    between atoms: _22  and  _25
REMARK   12  A    between atoms: _25  and  _26
REMARK   13  A    between atoms: _28  and  _30
REMARK   14  A    between atoms: _30  and  _31
REMARK   15  A    between atoms: _30  and  _33
REMARK   16  A    between atoms: _33  and  _34
REMARK   17  A    between atoms: _34  and  _35
REMARK   18  A    between atoms: _35  and  _36
REMARK   19  A    between atoms: _45  and  _47
REMARK   20  A    between atoms: _47  and  _48
REMARK   21  A    between atoms: _47  and  _50
REMARK   22  A    between atoms: _50  and  _51
REMARK   23  A    between atoms: _56  and  _57
REMARK   24  A    between atoms: _59  and  _61
REMARK   25  A    between atoms: _61  and  _62
REMARK   26  A    between atoms: _61  and  _64
REMARK   27  A    between atoms: _64  and  _65
REMARK   28  A    between atoms: _65  and  _66
REMARK   29  A    between atoms: _69  and  _71
REMARK   30  A    between atoms: _71  and  _72
REMARK   31  A    between atoms: _71  and  _74
REMARK   32  A    between atoms: _74  and  _75
REMARK   33  A    between atoms: _75  and  _76
REMARK   34  A    between atoms: _76  and  _77
REMARK   35  A    between atoms: _77  and  _78
REMARK   36  A    between atoms: _83  and  _84
REMARK   37  A    between atoms: _89  and  _91
REMARK   38  A    between atoms: _91  and  _92
REMARK   39  A    between atoms: _91  and  _94
REMARK   40  A    between atoms: _94  and  _95
REMARK   41  A    between atoms: _95  and  _96
REMARK   42  A    between atoms: _96  and  _97
REMARK   43  A    between atoms: _106  and  _108
REMARK   44  A    between atoms: _108  and  _109
REMARK   45  A    between atoms: _108  and  _111
REMARK   46  A    between atoms: _111  and  _112
REMARK   47  A    between atoms: _112  and  _113
REMARK   48  A    between atoms: _116  and  _118
REMARK   49  A    between atoms: _118  and  _119
REMARK   50  A    between atoms: _122  and  _124
REMARK   51  A    between atoms: _124  and  _125
REMARK   52  A    between atoms: _124  and  _127
REMARK   53  A    between atoms: _127  and  _128
REMARK   54  A    between atoms: _131  and  _133
REMARK   55  A    between atoms: _133  and  _134
REMARK   56  A    between atoms: _136  and  _138
REMARK   57  A    between atoms: _138  and  _139
REMARK   58  A    between atoms: _142  and  _144
REMARK   59  A    between atoms: _144  and  _145
REMARK   60  A    between atoms: _144  and  _147
REMARK   61  A    between atoms: _147  and  _148
REMARK   62  A    between atoms: _148  and  _149
REMARK   63  A    between atoms: _149  and  _150
REMARK   64  A    between atoms: _159  and  _161
REMARK   65  A    between atoms: _161  and  _162
REMARK   66  A    between atoms: _161  and  _164
REMARK   67  A    between atoms: _164  and  _165
REMARK   68  A    between atoms: _168  and  _170
REMARK   69  A    between atoms: _170  and  _171
REMARK   70  A    between atoms: _170  and  _173
REMARK   71  A    between atoms: _173  and  _174
REMARK   72  A    between atoms: _177  and  _179
REMARK   73  A    between atoms: _179  and  _180
REMARK   74  A    between atoms: _179  and  _182
REMARK   75  A    between atoms: _182  and  _183
REMARK   76  A    between atoms: _183  and  _184
REMARK   77  A    between atoms: _184  and  _185
REMARK   78  A    between atoms: _185  and  _186
REMARK   79  A    between atoms: _190  and  _192
REMARK   80  A    between atoms: _192  and  _193
REMARK   81  A    between atoms: _192  and  _195
REMARK   82  A    between atoms: _195  and  _196
REMARK   83  A    between atoms: _201  and  _203
REMARK   84  A    between atoms: _203  and  _204
REMARK   85  A    between atoms: _206  and  _208
REMARK   86  A    between atoms: _208  and  _209
REMARK   87  A    between atoms: _208  and  _211
REMARK   88  A    between atoms: _211  and  _212
REMARK   89  A    between atoms: _215  and  _217
REMARK   90  A    between atoms: _217  and  _218
REMARK   91  A    between atoms: _217  and  _220
REMARK   92  A    between atoms: _220  and  _221
REMARK   93  A    between atoms: _224  and  _226
REMARK   94  A    between atoms: _226  and  _227
REMARK   95  A    between atoms: _226  and  _229
REMARK   96  A    between atoms: _229  and  _230
REMARK   97  A    between atoms: _233  and  _235
REMARK   98  A    between atoms: _235  and  _236
REMARK   99  A    between atoms: _235  and  _238
REMARK  100  A    between atoms: _238  and  _239
REMARK  101  A    between atoms: _239  and  _240
REMARK  102  A    between atoms: _240  and  _241
REMARK  103  A    between atoms: _250  and  _252
REMARK  104  A    between atoms: _252  and  _253
REMARK  105  A    between atoms: _255  and  _257
REMARK  106  A    between atoms: _257  and  _258
REMARK  107  A    between atoms: _257  and  _260
REMARK  108  A    between atoms: _260  and  _261
REMARK  109  A    between atoms: _264  and  _266
REMARK  110  A    between atoms: _266  and  _267
REMARK  111  A    between atoms: _266  and  _269
REMARK  112  A    between atoms: _269  and  _270
REMARK  113  A    between atoms: _272  and  _274
REMARK  114  A    between atoms: _274  and  _275
REMARK  115  A    between atoms: _274  and  _277
REMARK  116  A    between atoms: _277  and  _278
REMARK  117  A    between atoms: _282  and  MN_355
REMARK  118  A    between atoms: _283  and  _285
REMARK  119  A    between atoms: _285  and  _286
REMARK  120  A    between atoms: _289  and  _291
REMARK  121  A    between atoms: _291  and  _292
REMARK  122  A    between atoms: _291  and  _294
REMARK  123  A    between atoms: _294  and  _295
REMARK  124  A    between atoms: _300  and  _302
REMARK  125  A    between atoms: _302  and  _303
REMARK  126  A    between atoms: _302  and  _305
REMARK  127  A    between atoms: _305  and  _306
REMARK  128  A    between atoms: _306  and  _307
REMARK  129  A    between atoms: _309  and  _311
REMARK  130  A    between atoms: _311  and  _312
REMARK  131  A    between atoms: _311  and  _314
REMARK  132  A    between atoms: _314  and  _315
REMARK  133  A    between atoms: _315  and  _316
REMARK  134  A    between atoms: _316  and  _318
REMARK  135  A    between atoms: _318  and  MN_355
REMARK  136  A    between atoms: _319  and  _321
REMARK  137  A    between atoms: _321  and  _322
REMARK  138  A    between atoms: _321  and  _324
REMARK  139  A    between atoms: _324  and  _325
REMARK  140  A    between atoms: _327  and  _329
REMARK  141  A    between atoms: _329  and  _330
REMARK  142  A    between atoms: _329  and  _332
REMARK  143  A    between atoms: _332  and  _333
REMARK  144  A    between atoms: _336  and  _338
REMARK  145  A    between atoms: _338  and  _339
REMARK  146  A    between atoms: _338  and  _341
REMARK  147  A    between atoms: _341  and  _342
REMARK  148  A    between atoms: _342  and  _344
REMARK  149  A    between atoms: _344  and  MN_355
REMARK  150  A    between atoms: _345  and  _347
REMARK  151  A    between atoms: _347  and  _348
REMARK  152  A    between atoms: _347  and  _350
REMARK  153  A    between atoms: _350  and  _351
REMARK  154  A    between atoms: _351  and  _352
REMARK                            x       y       z     vdW  Elec       q    Type
REMARK                         _______ _______ _______ _____ _____    ______ ____
ROOT
ATOM      1  O   HOH     1     -11.390 -88.648   6.824  0.00  0.00    +0.000 OA
ENDROOT
TORSDOF 0
REMARK  Name = ../refined-set-2016/4uma/4uma_pocket.pdb
REMARK  154 active torsions:
REMARK  status: ('A' for Active; 'I' for Inactive)
REMARK    1  A    between atoms: _1  and  _3
REMARK    2  A    between atoms: _3  and  _4
REMARK    3  A    between atoms: _7  and  _8
REMARK    4  A    between atoms: _13  and  _15
REMARK    5  A    between atoms: _15  and  _16
REMARK    6  A    between atoms: _15  and  _18
REMARK    7  A    between atoms: _18  and  _19
REMARK    8  A    between atoms: _19  and  MN_355
REMARK    9  A    between atoms: _20  and  _22
REMARK   10  A    between atoms: _22  and  _23
REMARK   11  A    between atoms: _22  and  _25
REMARK   12  A    between atoms: _25  and  _26
REMARK   13  A    between atoms: _28  and  _30
REMARK   14  A    between atoms: _30  and  _31
REMARK   15  A    between atoms: _30  and  _33
REMARK   16  A    between atoms: _33  and  _34
REMARK   17  A    between atoms: _34  and  _35
REMARK   18  A    between atoms: _35  and  _36
REMARK   19  A    between atoms: _45  and  _47
REMARK   20  A    between atoms: _47  and  _48
REMARK   21  A    between atoms: _47  and  _50
REMARK   22  A    between atoms: _50  and  _51
REMARK   23  A    between atoms: _56  and  _57
REMARK   24  A    between atoms: _59  and  _61
REMARK   25  A    between atoms: _61  and  _62
REMARK   26  A    between atoms: _61  and  _64
REMARK   27  A    between atoms: _64  and  _65
REMARK   28  A    between atoms: _65  and  _66
REMARK   29  A    between atoms: _69  and  _71
REMARK   30  A    between atoms: _71  and  _72
REMARK   31  A    between atoms: _71  and  _74
REMARK   32  A    between atoms: _74  and  _75
REMARK   33  A    between atoms: _75  and  _76
REMARK   34  A    between atoms: _76  and  _77
REMARK   35  A    between atoms: _77  and  _78
REMARK   36  A    between atoms: _83  and  _84
REMARK   37  A    between atoms: _89  and  _91
REMARK   38  A    between atoms: _91  and  _92
REMARK   39  A    between atoms: _91  and  _94
REMARK   40  A    between atoms: _94  and  _95
REMARK   41  A    between atoms: _95  and  _96
REMARK   42  A    between atoms: _96  and  _97
REMARK   43  A    between atoms: _106  and  _108
REMARK   44  A    between atoms: _108  and  _109
REMARK   45  A    between atoms: _108  and  _111
REMARK   46  A    between atoms: _111  and  _112
REMARK   47  A    between atoms: _112  and  _113
REMARK   48  A    between atoms: _116  and  _118
REMARK   49  A    between atoms: _118  and  _119
REMARK   50  A    between atoms: _122  and  _124
REMARK   51  A    between atoms: _124  and  _125
REMARK   52  A    between atoms: _124  and  _127
REMARK   53  A    between atoms: _127  and  _128
REMARK   54  A    between atoms: _131  and  _133
REMARK   55  A    between atoms: _133  and  _134
REMARK   56  A    between atoms: _136  and  _138
REMARK   57  A    between atoms: _138  and  _139
REMARK   58  A    between atoms: _142  and  _144
REMARK   59  A    between atoms: _144  and  _145
REMARK   60  A    between atoms: _144  and  _147
REMARK   61  A    between atoms: _147  and  _148
REMARK   62  A    between atoms: _148  and  _149
REMARK   63  A    between atoms: _149  and  _150
REMARK   64  A    between atoms: _159  and  _161
REMARK   65  A    between atoms: _161  and  _162
REMARK   66  A    between atoms: _161  and  _164
REMARK   67  A    between atoms: _164  and  _165
REMARK   68  A    between atoms: _168  and  _170
REMARK   69  A    between atoms: _170  and  _171
REMARK   70  A    between atoms: _170  and  _173
REMARK   71  A    between atoms: _173  and  _174
REMARK   72  A    between atoms: _177  and  _179
REMARK   73  A    between atoms: _179  and  _180
REMARK   74  A    between atoms: _179  and  _182
REMARK   75  A    between atoms: _182  and  _183
REMARK   76  A    between atoms: _183  and  _184
REMARK   77  A    between atoms: _184  and  _185
REMARK   78  A    between atoms: _185  and  _186
REMARK   79  A    between atoms: _190  and  _192
REMARK   80  A    between atoms: _192  and  _193
REMARK   81  A    between atoms: _192  and  _195
REMARK   82  A    between atoms: _195  and  _196
REMARK   83  A    between atoms: _201  and  _203
REMARK   84  A    between atoms: _203  and  _204
REMARK   85  A    between atoms: _206  and  _208
REMARK   86  A    between atoms: _208  and  _209
REMARK   87  A    between atoms: _208  and  _211
REMARK   88  A    between atoms: _211  and  _212
REMARK   89  A    between atoms: _215  and  _217
REMARK   90  A    between atoms: _217  and  _218
REMARK   91  A    between atoms: _217  and  _220
REMARK   92  A    between atoms: _220  and  _221
REMARK   93  A    between atoms: _224  and  _226
REMARK   94  A    between atoms: _226  and  _227
REMARK   95  A    between atoms: _226  and  _229
REMARK   96  A    between atoms: _229  and  _230
REMARK   97  A    between atoms: _233  and  _235
REMARK   98  A    between atoms: _235  and  _236
REMARK   99  A    between atoms: _235  and  _238
REMARK  100  A    between atoms: _238  and  _239
REMARK  101  A    between atoms: _239  and  _240
REMARK  102  A    between atoms: _240  and  _241
REMARK  103  A    between atoms: _250  and  _252
REMARK  104  A    between atoms: _252  and  _253
REMARK  105  A    between atoms: _255  and  _257
REMARK  106  A    between atoms: _257  and  _258
REMARK  107  A    between atoms: _257  and  _260
REMARK  108  A    between atoms: _260  and  _261
REMARK  109  A    between atoms: _264  and  _266
REMARK  110  A    between atoms: _266  and  _267
REMARK  111  A    between atoms: _266  and  _269
REMARK  112  A    between atoms: _269  and  _270
REMARK  113  A    between atoms: _272  and  _274
REMARK  114  A    between atoms: _274  and  _275
REMARK  115  A    between atoms: _274  and  _277
REMARK  116  A    between atoms: _277  and  _278
REMARK  117  A    between atoms: _282  and  MN_355
REMARK  118  A    between atoms: _283  and  _285
REMARK  119  A    between atoms: _285  and  _286
REMARK  120  A    between atoms: _289  and  _291
REMARK  121  A    between atoms: _291  and  _292
REMARK  122  A    between atoms: _291  and  _294
REMARK  123  A    between atoms: _294  and  _295
REMARK  124  A    between atoms: _300  and  _302
REMARK  125  A    between atoms: _302  and  _303
REMARK  126  A    between atoms: _302  and  _305
REMARK  127  A    between atoms: _305  and  _306
REMARK  128  A    between atoms: _306  and  _307
REMARK  129  A    between atoms: _309  and  _311
REMARK  130  A    between atoms: _311  and  _312
REMARK  131  A    between atoms: _311  and  _314
REMARK  132  A    between atoms: _314  and  _315
REMARK  133  A    between atoms: _315  and  _316
REMARK  134  A    between atoms: _316  and  _318
REMARK  135  A    between atoms: _318  and  MN_355
REMARK  136  A    between atoms: _319  and  _321
REMARK  137  A    between atoms: _321  and  _322
REMARK  138  A    between atoms: _321  and  _324
REMARK  139  A    between atoms: _324  and  _325
REMARK  140  A    between atoms: _327  and  _329
REMARK  141  A    between atoms: _329  and  _330
REMARK  142  A    between atoms: _329  and  _332
REMARK  143  A    between atoms: _332  and  _333
REMARK  144  A    between atoms: _336  and  _338
REMARK  145  A    between atoms: _338  and  _339
REMARK  146  A    between atoms: _338  and  _341
REMARK  147  A    between atoms: _341  and  _342
REMARK  148  A    between atoms: _342  and  _344
REMARK  149  A    between atoms: _344  and  MN_355
REMARK  150  A    between atoms: _345  and  _347
REMARK  151  A    between atoms: _347  and  _348
REMARK  152  A    between atoms: _347  and  _350
REMARK  153  A    between atoms: _350  and  _351
REMARK  154  A    between atoms: _351  and  _352
REMARK                            x       y       z     vdW  Elec       q    Type
REMARK                         _______ _______ _______ _____ _____    ______ ____
ROOT
ATOM      1  O   HOH     1      -2.779 -87.832   5.763  0.00  0.00    +0.000 OA
ENDROOT
TORSDOF 0
REMARK  Name = ../refined-set-2016/4uma/4uma_pocket.pdb
REMARK  154 active torsions:
REMARK  status: ('A' for Active; 'I' for Inactive)
REMARK    1  A    between atoms: _1  and  _3
REMARK    2  A    between atoms: _3  and  _4
REMARK    3  A    between atoms: _7  and  _8
REMARK    4  A    between atoms: _13  and  _15
REMARK    5  A    between atoms: _15  and  _16
REMARK    6  A    between atoms: _15  and  _18
REMARK    7  A    between atoms: _18  and  _19
REMARK    8  A    between atoms: _19  and  MN_355
REMARK    9  A    between atoms: _20  and  _22
REMARK   10  A    between atoms: _22  and  _23
REMARK   11  A    between atoms: _22  and  _25
REMARK   12  A    between atoms: _25  and  _26
REMARK   13  A    between atoms: _28  and  _30
REMARK   14  A    between atoms: _30  and  _31
REMARK   15  A    between atoms: _30  and  _33
REMARK   16  A    between atoms: _33  and  _34
REMARK   17  A    between atoms: _34  and  _35
REMARK   18  A    between atoms: _35  and  _36
REMARK   19  A    between atoms: _45  and  _47
REMARK   20  A    between atoms: _47  and  _48
REMARK   21  A    between atoms: _47  and  _50
REMARK   22  A    between atoms: _50  and  _51
REMARK   23  A    between atoms: _56  and  _57
REMARK   24  A    between atoms: _59  and  _61
REMARK   25  A    between atoms: _61  and  _62
REMARK   26  A    between atoms: _61  and  _64
REMARK   27  A    between atoms: _64  and  _65
REMARK   28  A    between atoms: _65  and  _66
REMARK   29  A    between atoms: _69  and  _71
REMARK   30  A    between atoms: _71  and  _72
REMARK   31  A    between atoms: _71  and  _74
REMARK   32  A    between atoms: _74  and  _75
REMARK   33  A    between atoms: _75  and  _76
REMARK   34  A    between atoms: _76  and  _77
REMARK   35  A    between atoms: _77  and  _78
REMARK   36  A    between atoms: _83  and  _84
REMARK   37  A    between atoms: _89  and  _91
REMARK   38  A    between atoms: _91  and  _92
REMARK   39  A    between atoms: _91  and  _94
REMARK   40  A    between atoms: _94  and  _95
REMARK   41  A    between atoms: _95  and  _96
REMARK   42  A    between atoms: _96  and  _97
REMARK   43  A    between atoms: _106  and  _108
REMARK   44  A    between atoms: _108  and  _109
REMARK   45  A    between atoms: _108  and  _111
REMARK   46  A    between atoms: _111  and  _112
REMARK   47  A    between atoms: _112  and  _113
REMARK   48  A    between atoms: _116  and  _118
REMARK   49  A    between atoms: _118  and  _119
REMARK   50  A    between atoms: _122  and  _124
REMARK   51  A    between atoms: _124  and  _125
REMARK   52  A    between atoms: _124  and  _127
REMARK   53  A    between atoms: _127  and  _128
REMARK   54  A    between atoms: _131  and  _133
REMARK   55  A    between atoms: _133  and  _134
REMARK   56  A    between atoms: _136  and  _138
REMARK   57  A    between atoms: _138  and  _139
REMARK   58  A    between atoms: _142  and  _144
REMARK   59  A    between atoms: _144  and  _145
REMARK   60  A    between atoms: _144  and  _147
REMARK   61  A    between atoms: _147  and  _148
REMARK   62  A    between atoms: _148  and  _149
REMARK   63  A    between atoms: _149  and  _150
REMARK   64  A    between atoms: _159  and  _161
REMARK   65  A    between atoms: _161  and  _162
REMARK   66  A    between atoms: _161  and  _164
REMARK   67  A    between atoms: _164  and  _165
REMARK   68  A    between atoms: _168  and  _170
REMARK   69  A    between atoms: _170  and  _171
REMARK   70  A    between atoms: _170  and  _173
REMARK   71  A    between atoms: _173  and  _174
REMARK   72  A    between atoms: _177  and  _179
REMARK   73  A    between atoms: _179  and  _180
REMARK   74  A    between atoms: _179  and  _182
REMARK   75  A    between atoms: _182  and  _183
REMARK   76  A    between atoms: _183  and  _184
REMARK   77  A    between atoms: _184  and  _185
REMARK   78  A    between atoms: _185  and  _186
REMARK   79  A    between atoms: _190  and  _192
REMARK   80  A    between atoms: _192  and  _193
REMARK   81  A    between atoms: _192  and  _195
REMARK   82  A    between atoms: _195  and  _196
REMARK   83  A    between atoms: _201  and  _203
REMARK   84  A    between atoms: _203  and  _204
REMARK   85  A    between atoms: _206  and  _208
REMARK   86  A    between atoms: _208  and  _209
REMARK   87  A    between atoms: _208  and  _211
REMARK   88  A    between atoms: _211  and  _212
REMARK   89  A    between atoms: _215  and  _217
REMARK   90  A    between atoms: _217  and  _218
REMARK   91  A    between atoms: _217  and  _220
REMARK   92  A    between atoms: _220  and  _221
REMARK   93  A    between atoms: _224  and  _226
REMARK   94  A    between atoms: _226  and  _227
REMARK   95  A    between atoms: _226  and  _229
REMARK   96  A    between atoms: _229  and  _230
REMARK   97  A    between atoms: _233  and  _235
REMARK   98  A    between atoms: _235  and  _236
REMARK   99  A    between atoms: _235  and  _238
REMARK  100  A    between atoms: _238  and  _239
REMARK  101  A    between atoms: _239  and  _240
REMARK  102  A    between atoms: _240  and  _241
REMARK  103  A    between atoms: _250  and  _252
REMARK  104  A    between atoms: _252  and  _253
REMARK  105  A    between atoms: _255  and  _257
REMARK  106  A    between atoms: _257  and  _258
REMARK  107  A    between atoms: _257  and  _260
REMARK  108  A    between atoms: _260  and  _261
REMARK  109  A    between atoms: _264  and  _266
REMARK  110  A    between atoms: _266  and  _267
REMARK  111  A    between atoms: _266  and  _269
REMARK  112  A    between atoms: _269  and  _270
REMARK  113  A    between atoms: _272  and  _274
REMARK  114  A    between atoms: _274  and  _275
REMARK  115  A    between atoms: _274  and  _277
REMARK  116  A    between atoms: _277  and  _278
REMARK  117  A    between atoms: _282  and  MN_355
REMARK  118  A    between atoms: _283  and  _285
REMARK  119  A    between atoms: _285  and  _286
REMARK  120  A    between atoms: _289  and  _291
REMARK  121  A    between atoms: _291  and  _292
REMARK  122  A    between atoms: _291  and  _294
REMARK  123  A    between atoms: _294  and  _295
REMARK  124  A    between atoms: _300  and  _302
REMARK  125  A    between atoms: _302  and  _303
REMARK  126  A    between atoms: _302  and  _305
REMARK  127  A    between atoms: _305  and  _306
REMARK  128  A    between atoms: _306  and  _307
REMARK  129  A    between atoms: _309  and  _311
REMARK  130  A    between atoms: _311  and  _312
REMARK  131  A    between atoms: _311  and  _314
REMARK  132  A    between atoms: _314  and  _315
REMARK  133  A    between atoms: _315  and  _316
REMARK  134  A    between atoms: _316  and  _318
REMARK  135  A    between atoms: _318  and  MN_355
REMARK  136  A    between atoms: _319  and  _321
REMARK  137  A    between atoms: _321  and  _322
REMARK  138  A    between atoms: _321  and  _324
REMARK  139  A    between atoms: _324  and  _325
REMARK  140  A    between atoms: _327  and  _329
REMARK  141  A    between atoms: _329  and  _330
REMARK  142  A    between atoms: _329  and  _332
REMARK  143  A    between atoms: _332  and  _333
REMARK  144  A    between atoms: _336  and  _338
REMARK  145  A    between atoms: _338  and  _339
REMARK  146  A    between atoms: _338  and  _341
REMARK  147  A    between atoms: _341  and  _342
REMARK  148  A    between atoms: _342  and  _344
REMARK  149  A    between atoms: _344  and  MN_355
REMARK  150  A    between atoms: _345  and  _347
REMARK  151  A    between atoms: _347  and  _348
REMARK  152  A    between atoms: _347  and  _350
REMARK  153  A    between atoms: _350  and  _351
REMARK  154  A    between atoms: _351  and  _352
REMARK                            x       y       z     vdW  Elec       q    Type
REMARK                         _______ _______ _______ _____ _____    ______ ____
ROOT
ATOM      1  O   HOH     1      -3.816 -80.634   6.673  0.00  0.00    +0.000 OA
ENDROOT
TORSDOF 0
REMARK  Name = ../refined-set-2016/4uma/4uma_pocket.pdb
REMARK  154 active torsions:
REMARK  status: ('A' for Active; 'I' for Inactive)
REMARK    1  A    between atoms: _1  and  _3
REMARK    2  A    between atoms: _3  and  _4
REMARK    3  A    between atoms: _7  and  _8
REMARK    4  A    between atoms: _13  and  _15
REMARK    5  A    between atoms: _15  and  _16
REMARK    6  A    between atoms: _15  and  _18
REMARK    7  A    between atoms: _18  and  _19
REMARK    8  A    between atoms: _19  and  MN_355
REMARK    9  A    between atoms: _20  and  _22
REMARK   10  A    between atoms: _22  and  _23
REMARK   11  A    between atoms: _22  and  _25
REMARK   12  A    between atoms: _25  and  _26
REMARK   13  A    between atoms: _28  and  _30
REMARK   14  A    between atoms: _30  and  _31
REMARK   15  A    between atoms: _30  and  _33
REMARK   16  A    between atoms: _33  and  _34
REMARK   17  A    between atoms: _34  and  _35
REMARK   18  A    between atoms: _35  and  _36
REMARK   19  A    between atoms: _45  and  _47
REMARK   20  A    between atoms: _47  and  _48
REMARK   21  A    between atoms: _47  and  _50
REMARK   22  A    between atoms: _50  and  _51
REMARK   23  A    between atoms: _56  and  _57
REMARK   24  A    between atoms: _59  and  _61
REMARK   25  A    between atoms: _61  and  _62
REMARK   26  A    between atoms: _61  and  _64
REMARK   27  A    between atoms: _64  and  _65
REMARK   28  A    between atoms: _65  and  _66
REMARK   29  A    between atoms: _69  and  _71
REMARK   30  A    between atoms: _71  and  _72
REMARK   31  A    between atoms: _71  and  _74
REMARK   32  A    between atoms: _74  and  _75
REMARK   33  A    between atoms: _75  and  _76
REMARK   34  A    between atoms: _76  and  _77
REMARK   35  A    between atoms: _77  and  _78
REMARK   36  A    between atoms: _83  and  _84
REMARK   37  A    between atoms: _89  and  _91
REMARK   38  A    between atoms: _91  and  _92
REMARK   39  A    between atoms: _91  and  _94
REMARK   40  A    between atoms: _94  and  _95
REMARK   41  A    between atoms: _95  and  _96
REMARK   42  A    between atoms: _96  and  _97
REMARK   43  A    between atoms: _106  and  _108
REMARK   44  A    between atoms: _108  and  _109
REMARK   45  A    between atoms: _108  and  _111
REMARK   46  A    between atoms: _111  and  _112
REMARK   47  A    between atoms: _112  and  _113
REMARK   48  A    between atoms: _116  and  _118
REMARK   49  A    between atoms: _118  and  _119
REMARK   50  A    between atoms: _122  and  _124
REMARK   51  A    between atoms: _124  and  _125
REMARK   52  A    between atoms: _124  and  _127
REMARK   53  A    between atoms: _127  and  _128
REMARK   54  A    between atoms: _131  and  _133
REMARK   55  A    between atoms: _133  and  _134
REMARK   56  A    between atoms: _136  and  _138
REMARK   57  A    between atoms: _138  and  _139
REMARK   58  A    between atoms: _142  and  _144
REMARK   59  A    between atoms: _144  and  _145
REMARK   60  A    between atoms: _144  and  _147
REMARK   61  A    between atoms: _147  and  _148
REMARK   62  A    between atoms: _148  and  _149
REMARK   63  A    between atoms: _149  and  _150
REMARK   64  A    between atoms: _159  and  _161
REMARK   65  A    between atoms: _161  and  _162
REMARK   66  A    between atoms: _161  and  _164
REMARK   67  A    between atoms: _164  and  _165
REMARK   68  A    between atoms: _168  and  _170
REMARK   69  A    between atoms: _170  and  _171
REMARK   70  A    between atoms: _170  and  _173
REMARK   71  A    between atoms: _173  and  _174
REMARK   72  A    between atoms: _177  and  _179
REMARK   73  A    between atoms: _179  and  _180
REMARK   74  A    between atoms: _179  and  _182
REMARK   75  A    between atoms: _182  and  _183
REMARK   76  A    between atoms: _183  and  _184
REMARK   77  A    between atoms: _184  and  _185
REMARK   78  A    between atoms: _185  and  _186
REMARK   79  A    between atoms: _190  and  _192
REMARK   80  A    between atoms: _192  and  _193
REMARK   81  A    between atoms: _192  and  _195
REMARK   82  A    between atoms: _195  and  _196
REMARK   83  A    between atoms: _201  and  _203
REMARK   84  A    between atoms: _203  and  _204
REMARK   85  A    between atoms: _206  and  _208
REMARK   86  A    between atoms: _208  and  _209
REMARK   87  A    between atoms: _208  and  _211
REMARK   88  A    between atoms: _211  and  _212
REMARK   89  A    between atoms: _215  and  _217
REMARK   90  A    between atoms: _217  and  _218
REMARK   91  A    between atoms: _217  and  _220
REMARK   92  A    between atoms: _220  and  _221
REMARK   93  A    between atoms: _224  and  _226
REMARK   94  A    between atoms: _226  and  _227
REMARK   95  A    between atoms: _226  and  _229
REMARK   96  A    between atoms: _229  and  _230
REMARK   97  A    between atoms: _233  and  _235
REMARK   98  A    between atoms: _235  and  _236
REMARK   99  A    between atoms: _235  and  _238
REMARK  100  A    between atoms: _238  and  _239
REMARK  101  A    between atoms: _239  and  _240
REMARK  102  A    between atoms: _240  and  _241
REMARK  103  A    between atoms: _250  and  _252
REMARK  104  A    between atoms: _252  and  _253
REMARK  105  A    between atoms: _255  and  _257
REMARK  106  A    between atoms: _257  and  _258
REMARK  107  A    between atoms: _257  and  _260
REMARK  108  A    between atoms: _260  and  _261
REMARK  109  A    between atoms: _264  and  _266
REMARK  110  A    between atoms: _266  and  _267
REMARK  111  A    between atoms: _266  and  _269
REMARK  112  A    between atoms: _269  and  _270
REMARK  113  A    between atoms: _272  and  _274
REMARK  114  A    between atoms: _274  and  _275
REMARK  115  A    between atoms: _274  and  _277
REMARK  116  A    between atoms: _277  and  _278
REMARK  117  A    between atoms: _282  and  MN_355
REMARK  118  A    between atoms: _283  and  _285
REMARK  119  A    between atoms: _285  and  _286
REMARK  120  A    between atoms: _289  and  _291
REMARK  121  A    between atoms: _291  and  _292
REMARK  122  A    between atoms: _291  and  _294
REMARK  123  A    between atoms: _294  and  _295
REMARK  124  A    between atoms: _300  and  _302
REMARK  125  A    between atoms: _302  and  _303
REMARK  126  A    between atoms: _302  and  _305
REMARK  127  A    between atoms: _305  and  _306
REMARK  128  A    between atoms: _306  and  _307
REMARK  129  A    between atoms: _309  and  _311
REMARK  130  A    between atoms: _311  and  _312
REMARK  131  A    between atoms: _311  and  _314
REMARK  132  A    between atoms: _314  and  _315
REMARK  133  A    between atoms: _315  and  _316
REMARK  134  A    between atoms: _316  and  _318
REMARK  135  A    between atoms: _318  and  MN_355
REMARK  136  A    between atoms: _319  and  _321
REMARK  137  A    between atoms: _321  and  _322
REMARK  138  A    between atoms: _321  and  _324
REMARK  139  A    between atoms: _324  and  _325
REMARK  140  A    between atoms: _327  and  _329
REMARK  141  A    between atoms: _329  and  _330
REMARK  142  A    between atoms: _329  and  _332
REMARK  143  A    between atoms: _332  and  _333
REMARK  144  A    between atoms: _336  and  _338
REMARK  145  A    between atoms: _338  and  _339
REMARK  146  A    between atoms: _338  and  _341
REMARK  147  A    between atoms: _341  and  _342
REMARK  148  A    between atoms: _342  and  _344
REMARK  149  A    between atoms: _344  and  MN_355
REMARK  150  A    between atoms: _345  and  _347
REMARK  151  A    between atoms: _347  and  _348
REMARK  152  A    between atoms: _347  and  _350
REMARK  153  A    between atoms: _350  and  _351
REMARK  154  A    between atoms: _351  and  _352
REMARK                            x       y       z     vdW  Elec       q    Type
REMARK                         _______ _______ _______ _____ _____    ______ ____
ROOT
ATOM      1  O   HOH     1      -6.244 -83.449   4.392  0.00  0.00    +0.000 OA
ENDROOT
TORSDOF 0
REMARK  Name = ../refined-set-2016/4uma/4uma_pocket.pdb
REMARK  154 active torsions:
REMARK  status: ('A' for Active; 'I' for Inactive)
REMARK    1  A    between atoms: _1  and  _3
REMARK    2  A    between atoms: _3  and  _4
REMARK    3  A    between atoms: _7  and  _8
REMARK    4  A    between atoms: _13  and  _15
REMARK    5  A    between atoms: _15  and  _16
REMARK    6  A    between atoms: _15  and  _18
REMARK    7  A    between atoms: _18  and  _19
REMARK    8  A    between atoms: _19  and  MN_355
REMARK    9  A    between atoms: _20  and  _22
REMARK   10  A    between atoms: _22  and  _23
REMARK   11  A    between atoms: _22  and  _25
REMARK   12  A    between atoms: _25  and  _26
REMARK   13  A    between atoms: _28  and  _30
REMARK   14  A    between atoms: _30  and  _31
REMARK   15  A    between atoms: _30  and  _33
REMARK   16  A    between atoms: _33  and  _34
REMARK   17  A    between atoms: _34  and  _35
REMARK   18  A    between atoms: _35  and  _36
REMARK   19  A    between atoms: _45  and  _47
REMARK   20  A    between atoms: _47  and  _48
REMARK   21  A    between atoms: _47  and  _50
REMARK   22  A    between atoms: _50  and  _51
REMARK   23  A    between atoms: _56  and  _57
REMARK   24  A    between atoms: _59  and  _61
REMARK   25  A    between atoms: _61  and  _62
REMARK   26  A    between atoms: _61  and  _64
REMARK   27  A    between atoms: _64  and  _65
REMARK   28  A    between atoms: _65  and  _66
REMARK   29  A    between atoms: _69  and  _71
REMARK   30  A    between atoms: _71  and  _72
REMARK   31  A    between atoms: _71  and  _74
REMARK   32  A    between atoms: _74  and  _75
REMARK   33  A    between atoms: _75  and  _76
REMARK   34  A    between atoms: _76  and  _77
REMARK   35  A    between atoms: _77  and  _78
REMARK   36  A    between atoms: _83  and  _84
REMARK   37  A    between atoms: _89  and  _91
REMARK   38  A    between atoms: _91  and  _92
REMARK   39  A    between atoms: _91  and  _94
REMARK   40  A    between atoms: _94  and  _95
REMARK   41  A    between atoms: _95  and  _96
REMARK   42  A    between atoms: _96  and  _97
REMARK   43  A    between atoms: _106  and  _108
REMARK   44  A    between atoms: _108  and  _109
REMARK   45  A    between atoms: _108  and  _111
REMARK   46  A    between atoms: _111  and  _112
REMARK   47  A    between atoms: _112  and  _113
REMARK   48  A    between atoms: _116  and  _118
REMARK   49  A    between atoms: _118  and  _119
REMARK   50  A    between atoms: _122  and  _124
REMARK   51  A    between atoms: _124  and  _125
REMARK   52  A    between atoms: _124  and  _127
REMARK   53  A    between atoms: _127  and  _128
REMARK   54  A    between atoms: _131  and  _133
REMARK   55  A    between atoms: _133  and  _134
REMARK   56  A    between atoms: _136  and  _138
REMARK   57  A    between atoms: _138  and  _139
REMARK   58  A    between atoms: _142  and  _144
REMARK   59  A    between atoms: _144  and  _145
REMARK   60  A    between atoms: _144  and  _147
REMARK   61  A    between atoms: _147  and  _148
REMARK   62  A    between atoms: _148  and  _149
REMARK   63  A    between atoms: _149  and  _150
REMARK   64  A    between atoms: _159  and  _161
REMARK   65  A    between atoms: _161  and  _162
REMARK   66  A    between atoms: _161  and  _164
REMARK   67  A    between atoms: _164  and  _165
REMARK   68  A    between atoms: _168  and  _170
REMARK   69  A    between atoms: _170  and  _171
REMARK   70  A    between atoms: _170  and  _173
REMARK   71  A    between atoms: _173  and  _174
REMARK   72  A    between atoms: _177  and  _179
REMARK   73  A    between atoms: _179  and  _180
REMARK   74  A    between atoms: _179  and  _182
REMARK   75  A    between atoms: _182  and  _183
REMARK   76  A    between atoms: _183  and  _184
REMARK   77  A    between atoms: _184  and  _185
REMARK   78  A    between atoms: _185  and  _186
REMARK   79  A    between atoms: _190  and  _192
REMARK   80  A    between atoms: _192  and  _193
REMARK   81  A    between atoms: _192  and  _195
REMARK   82  A    between atoms: _195  and  _196
REMARK   83  A    between atoms: _201  and  _203
REMARK   84  A    between atoms: _203  and  _204
REMARK   85  A    between atoms: _206  and  _208
REMARK   86  A    between atoms: _208  and  _209
REMARK   87  A    between atoms: _208  and  _211
REMARK   88  A    between atoms: _211  and  _212
REMARK   89  A    between atoms: _215  and  _217
REMARK   90  A    between atoms: _217  and  _218
REMARK   91  A    between atoms: _217  and  _220
REMARK   92  A    between atoms: _220  and  _221
REMARK   93  A    between atoms: _224  and  _226
REMARK   94  A    between atoms: _226  and  _227
REMARK   95  A    between atoms: _226  and  _229
REMARK   96  A    between atoms: _229  and  _230
REMARK   97  A    between atoms: _233  and  _235
REMARK   98  A    between atoms: _235  and  _236
REMARK   99  A    between atoms: _235  and  _238
REMARK  100  A    between atoms: _238  and  _239
REMARK  101  A    between atoms: _239  and  _240
REMARK  102  A    between atoms: _240  and  _241
REMARK  103  A    between atoms: _250  and  _252
REMARK  104  A    between atoms: _252  and  _253
REMARK  105  A    between atoms: _255  and  _257
REMARK  106  A    between atoms: _257  and  _258
REMARK  107  A    between atoms: _257  and  _260
REMARK  108  A    between atoms: _260  and  _261
REMARK  109  A    between atoms: _264  and  _266
REMARK  110  A    between atoms: _266  and  _267
REMARK  111  A    between atoms: _266  and  _269
REMARK  112  A    between atoms: _269  and  _270
REMARK  113  A    between atoms: _272  and  _274
REMARK  114  A    between atoms: _274  and  _275
REMARK  115  A    between atoms: _274  and  _277
REMARK  116  A    between atoms: _277  and  _278
REMARK  117  A    between atoms: _282  and  MN_355
REMARK  118  A    between atoms: _283  and  _285
REMARK  119  A    between atoms: _285  and  _286
REMARK  120  A    between atoms: _289  and  _291
REMARK  121  A    between atoms: _291  and  _292
REMARK  122  A    between atoms: _291  and  _294
REMARK  123  A    between atoms: _294  and  _295
REMARK  124  A    between atoms: _300  and  _302
REMARK  125  A    between atoms: _302  and  _303
REMARK  126  A    between atoms: _302  and  _305
REMARK  127  A    between atoms: _305  and  _306
REMARK  128  A    between atoms: _306  and  _307
REMARK  129  A    between atoms: _309  and  _311
REMARK  130  A    between atoms: _311  and  _312
REMARK  131  A    between atoms: _311  and  _314
REMARK  132  A    between atoms: _314  and  _315
REMARK  133  A    between atoms: _315  and  _316
REMARK  134  A    between atoms: _316  and  _318
REMARK  135  A    between atoms: _318  and  MN_355
REMARK  136  A    between atoms: _319  and  _321
REMARK  137  A    between atoms: _321  and  _322
REMARK  138  A    between atoms: _321  and  _324
REMARK  139  A    between atoms: _324  and  _325
REMARK  140  A    between atoms: _327  and  _329
REMARK  141  A    between atoms: _329  and  _330
REMARK  142  A    between atoms: _329  and  _332
REMARK  143  A    between atoms: _332  and  _333
REMARK  144  A    between atoms: _336  and  _338
REMARK  145  A    between atoms: _338  and  _339
REMARK  146  A    between atoms: _338  and  _341
REMARK  147  A    between atoms: _341  and  _342
REMARK  148  A    between atoms: _342  and  _344
REMARK  149  A    between atoms: _344  and  MN_355
REMARK  150  A    between atoms: _345  and  _347
REMARK  151  A    between atoms: _347  and  _348
REMARK  152  A    between atoms: _347  and  _350
REMARK  153  A    between atoms: _350  and  _351
REMARK  154  A    between atoms: _351  and  _352
REMARK                            x       y       z     vdW  Elec       q    Type
REMARK                         _______ _______ _______ _____ _____    ______ ____
ROOT
ATOM      1  O   HOH     1      -4.749 -86.625   7.194  0.00  0.00    +0.000 OA
ENDROOT
TORSDOF 0
REMARK  Name = ../refined-set-2016/4uma/4uma_pocket.pdb
REMARK  154 active torsions:
REMARK  status: ('A' for Active; 'I' for Inactive)
REMARK    1  A    between atoms: _1  and  _3
REMARK    2  A    between atoms: _3  and  _4
REMARK    3  A    between atoms: _7  and  _8
REMARK    4  A    between atoms: _13  and  _15
REMARK    5  A    between atoms: _15  and  _16
REMARK    6  A    between atoms: _15  and  _18
REMARK    7  A    between atoms: _18  and  _19
REMARK    8  A    between atoms: _19  and  MN_355
REMARK    9  A    between atoms: _20  and  _22
REMARK   10  A    between atoms: _22  and  _23
REMARK   11  A    between atoms: _22  and  _25
REMARK   12  A    between atoms: _25  and  _26
REMARK   13  A    between atoms: _28  and  _30
REMARK   14  A    between atoms: _30  and  _31
REMARK   15  A    between atoms: _30  and  _33
REMARK   16  A    between atoms: _33  and  _34
REMARK   17  A    between atoms: _34  and  _35
REMARK   18  A    between atoms: _35  and  _36
REMARK   19  A    between atoms: _45  and  _47
REMARK   20  A    between atoms: _47  and  _48
REMARK   21  A    between atoms: _47  and  _50
REMARK   22  A    between atoms: _50  and  _51
REMARK   23  A    between atoms: _56  and  _57
REMARK   24  A    between atoms: _59  and  _61
REMARK   25  A    between atoms: _61  and  _62
REMARK   26  A    between atoms: _61  and  _64
REMARK   27  A    between atoms: _64  and  _65
REMARK   28  A    between atoms: _65  and  _66
REMARK   29  A    between atoms: _69  and  _71
REMARK   30  A    between atoms: _71  and  _72
REMARK   31  A    between atoms: _71  and  _74
REMARK   32  A    between atoms: _74  and  _75
REMARK   33  A    between atoms: _75  and  _76
REMARK   34  A    between atoms: _76  and  _77
REMARK   35  A    between atoms: _77  and  _78
REMARK   36  A    between atoms: _83  and  _84
REMARK   37  A    between atoms: _89  and  _91
REMARK   38  A    between atoms: _91  and  _92
REMARK   39  A    between atoms: _91  and  _94
REMARK   40  A    between atoms: _94  and  _95
REMARK   41  A    between atoms: _95  and  _96
REMARK   42  A    between atoms: _96  and  _97
REMARK   43  A    between atoms: _106  and  _108
REMARK   44  A    between atoms: _108  and  _109
REMARK   45  A    between atoms: _108  and  _111
REMARK   46  A    between atoms: _111  and  _112
REMARK   47  A    between atoms: _112  and  _113
REMARK   48  A    between atoms: _116  and  _118
REMARK   49  A    between atoms: _118  and  _119
REMARK   50  A    between atoms: _122  and  _124
REMARK   51  A    between atoms: _124  and  _125
REMARK   52  A    between atoms: _124  and  _127
REMARK   53  A    between atoms: _127  and  _128
REMARK   54  A    between atoms: _131  and  _133
REMARK   55  A    between atoms: _133  and  _134
REMARK   56  A    between atoms: _136  and  _138
REMARK   57  A    between atoms: _138  and  _139
REMARK   58  A    between atoms: _142  and  _144
REMARK   59  A    between atoms: _144  and  _145
REMARK   60  A    between atoms: _144  and  _147
REMARK   61  A    between atoms: _147  and  _148
REMARK   62  A    between atoms: _148  and  _149
REMARK   63  A    between atoms: _149  and  _150
REMARK   64  A    between atoms: _159  and  _161
REMARK   65  A    between atoms: _161  and  _162
REMARK   66  A    between atoms: _161  and  _164
REMARK   67  A    between atoms: _164  and  _165
REMARK   68  A    between atoms: _168  and  _170
REMARK   69  A    between atoms: _170  and  _171
REMARK   70  A    between atoms: _170  and  _173
REMARK   71  A    between atoms: _173  and  _174
REMARK   72  A    between atoms: _177  and  _179
REMARK   73  A    between atoms: _179  and  _180
REMARK   74  A    between atoms: _179  and  _182
REMARK   75  A    between atoms: _182  and  _183
REMARK   76  A    between atoms: _183  and  _184
REMARK   77  A    between atoms: _184  and  _185
REMARK   78  A    between atoms: _185  and  _186
REMARK   79  A    between atoms: _190  and  _192
REMARK   80  A    between atoms: _192  and  _193
REMARK   81  A    between atoms: _192  and  _195
REMARK   82  A    between atoms: _195  and  _196
REMARK   83  A    between atoms: _201  and  _203
REMARK   84  A    between atoms: _203  and  _204
REMARK   85  A    between atoms: _206  and  _208
REMARK   86  A    between atoms: _208  and  _209
REMARK   87  A    between atoms: _208  and  _211
REMARK   88  A    between atoms: _211  and  _212
REMARK   89  A    between atoms: _215  and  _217
REMARK   90  A    between atoms: _217  and  _218
REMARK   91  A    between atoms: _217  and  _220
REMARK   92  A    between atoms: _220  and  _221
REMARK   93  A    between atoms: _224  and  _226
REMARK   94  A    between atoms: _226  and  _227
REMARK   95  A    between atoms: _226  and  _229
REMARK   96  A    between atoms: _229  and  _230
REMARK   97  A    between atoms: _233  and  _235
REMARK   98  A    between atoms: _235  and  _236
REMARK   99  A    between atoms: _235  and  _238
REMARK  100  A    between atoms: _238  and  _239
REMARK  101  A    between atoms: _239  and  _240
REMARK  102  A    between atoms: _240  and  _241
REMARK  103  A    between atoms: _250  and  _252
REMARK  104  A    between atoms: _252  and  _253
REMARK  105  A    between atoms: _255  and  _257
REMARK  106  A    between atoms: _257  and  _258
REMARK  107  A    between atoms: _257  and  _260
REMARK  108  A    between atoms: _260  and  _261
REMARK  109  A    between atoms: _264  and  _266
REMARK  110  A    between atoms: _266  and  _267
REMARK  111  A    between atoms: _266  and  _269
REMARK  112  A    between atoms: _269  and  _270
REMARK  113  A    between atoms: _272  and  _274
REMARK  114  A    between atoms: _274  and  _275
REMARK  115  A    between atoms: _274  and  _277
REMARK  116  A    between atoms: _277  and  _278
REMARK  117  A    between atoms: _282  and  MN_355
REMARK  118  A    between atoms: _283  and  _285
REMARK  119  A    between atoms: _285  and  _286
REMARK  120  A    between atoms: _289  and  _291
REMARK  121  A    between atoms: _291  and  _292
REMARK  122  A    between atoms: _291  and  _294
REMARK  123  A    between atoms: _294  and  _295
REMARK  124  A    between atoms: _300  and  _302
REMARK  125  A    between atoms: _302  and  _303
REMARK  126  A    between atoms: _302  and  _305
REMARK  127  A    between atoms: _305  and  _306
REMARK  128  A    between atoms: _306  and  _307
REMARK  129  A    between atoms: _309  and  _311
REMARK  130  A    between atoms: _311  and  _312
REMARK  131  A    between atoms: _311  and  _314
REMARK  132  A    between atoms: _314  and  _315
REMARK  133  A    between atoms: _315  and  _316
REMARK  134  A    between atoms: _316  and  _318
REMARK  135  A    between atoms: _318  and  MN_355
REMARK  136  A    between atoms: _319  and  _321
REMARK  137  A    between atoms: _321  and  _322
REMARK  138  A    between atoms: _321  and  _324
REMARK  139  A    between atoms: _324  and  _325
REMARK  140  A    between atoms: _327  and  _329
REMARK  141  A    between atoms: _329  and  _330
REMARK  142  A    between atoms: _329  and  _332
REMARK  143  A    between atoms: _332  and  _333
REMARK  144  A    between atoms: _336  and  _338
REMARK  145  A    between atoms: _338  and  _339
REMARK  146  A    between atoms: _338  and  _341
REMARK  147  A    between atoms: _341  and  _342
REMARK  148  A    between atoms: _342  and  _344
REMARK  149  A    between atoms: _344  and  MN_355
REMARK  150  A    between atoms: _345  and  _347
REMARK  151  A    between atoms: _347  and  _348
REMARK  152  A    between atoms: _347  and  _350
REMARK  153  A    between atoms: _350  and  _351
REMARK  154  A    between atoms: _351  and  _352
REMARK                            x       y       z     vdW  Elec       q    Type
REMARK                         _______ _______ _______ _____ _____    ______ ____
ROOT
ATOM      1  O   HOH     1     -13.884 -79.584  -0.143  0.00  0.00    +0.000 OA
ENDROOT
TORSDOF 0
