REMARK  Name = ../refined-set-2016/1hbv/1hbv_pocket.pdb
REMARK  203 active torsions:
REMARK  status: ('A' for Active; 'I' for Inactive)
REMARK    1  A    between atoms: _1  and  _3
REMARK    2  A    between atoms: _3  and  _4
REMARK    3  A    between atoms: _3  and  _6
REMARK    4  A    between atoms: _6  and  _7
REMARK    5  A    between atoms: _7  and  _8
REMARK    6  A    between atoms: _8  and  _9
REMARK    7  A    between atoms: _18  and  _20
REMARK    8  A    between atoms: _20  and  _21
REMARK    9  A    between atoms: _20  and  _23
REMARK   10  A    between atoms: _23  and  _24
REMARK   11  A    between atoms: _27  and  _29
REMARK   12  A    between atoms: _29  and  _30
REMARK   13  A    between atoms: _29  and  _32
REMARK   14  A    between atoms: _32  and  _33
REMARK   15  A    between atoms: _36  and  _38
REMARK   16  A    between atoms: _38  and  _39
REMARK   17  A    between atoms: _38  and  _41
REMARK   18  A    between atoms: _41  and  _42
REMARK   19  A    between atoms: _45  and  _47
REMARK   20  A    between atoms: _47  and  _48
REMARK   21  A    between atoms: _50  and  _52
REMARK   22  A    between atoms: _52  and  _53
REMARK   23  A    between atoms: _56  and  _58
REMARK   24  A    between atoms: _58  and  _59
REMARK   25  A    between atoms: _58  and  _61
REMARK   26  A    between atoms: _61  and  _62
REMARK   27  A    between atoms: _65  and  _67
REMARK   28  A    between atoms: _67  and  _68
REMARK   29  A    between atoms: _67  and  _70
REMARK   30  A    between atoms: _70  and  _71
REMARK   31  A    between atoms: _74  and  _76
REMARK   32  A    between atoms: _76  and  _77
REMARK   33  A    between atoms: _76  and  _79
REMARK   34  A    between atoms: _79  and  _80
REMARK   35  A    between atoms: _83  and  _85
REMARK   36  A    between atoms: _85  and  _86
REMARK   37  A    between atoms: _85  and  _88
REMARK   38  A    between atoms: _91  and  _93
REMARK   39  A    between atoms: _93  and  _94
REMARK   40  A    between atoms: _93  and  _96
REMARK   41  A    between atoms: _96  and  _97
REMARK   42  A    between atoms: _97  and  _98
REMARK   43  A    between atoms: _100  and  _102
REMARK   44  A    between atoms: _102  and  _103
REMARK   45  A    between atoms: _102  and  _105
REMARK   46  A    between atoms: _105  and  _106
REMARK   47  A    between atoms: _109  and  _111
REMARK   48  A    between atoms: _111  and  _112
REMARK   49  A    between atoms: _114  and  _116
REMARK   50  A    between atoms: _116  and  _117
REMARK   51  A    between atoms: _119  and  _121
REMARK   52  A    between atoms: _121  and  _122
REMARK   53  A    between atoms: _121  and  _124
REMARK   54  A    between atoms: _124  and  _125
REMARK   55  A    between atoms: _128  and  _130
REMARK   56  A    between atoms: _130  and  _131
REMARK   57  A    between atoms: _133  and  _135
REMARK   58  A    between atoms: _135  and  _136
REMARK   59  A    between atoms: _138  and  _140
REMARK   60  A    between atoms: _140  and  _141
REMARK   61  A    between atoms: _140  and  _143
REMARK   62  A    between atoms: _143  and  _144
REMARK   63  A    between atoms: _147  and  _149
REMARK   64  A    between atoms: _149  and  _150
REMARK   65  A    between atoms: _149  and  _152
REMARK   66  A    between atoms: _155  and  _157
REMARK   67  A    between atoms: _157  and  _158
REMARK   68  A    between atoms: _157  and  _160
REMARK   69  A    between atoms: _160  and  _161
REMARK   70  A    between atoms: _165  and  _166
REMARK   71  A    between atoms: _171  and  _173
REMARK   72  A    between atoms: _173  and  _174
REMARK   73  A    between atoms: _173  and  _176
REMARK   74  A    between atoms: _176  and  _177
REMARK   75  A    between atoms: _181  and  _182
REMARK   76  A    between atoms: _187  and  _189
REMARK   77  A    between atoms: _189  and  _190
REMARK   78  A    between atoms: _189  and  _192
REMARK   79  A    between atoms: _195  and  _197
REMARK   80  A    between atoms: _197  and  _198
REMARK   81  A    between atoms: _197  and  _200
REMARK   82  A    between atoms: _200  and  _201
REMARK   83  A    between atoms: _206  and  _208
REMARK   84  A    between atoms: _208  and  _209
REMARK   85  A    between atoms: _208  and  _211
REMARK   86  A    between atoms: _211  and  _212
REMARK   87  A    between atoms: _215  and  _217
REMARK   88  A    between atoms: _217  and  _218
REMARK   89  A    between atoms: _217  and  _220
REMARK   90  A    between atoms: _220  and  _221
REMARK   91  A    between atoms: _224  and  _226
REMARK   92  A    between atoms: _226  and  _227
REMARK   93  A    between atoms: _229  and  _231
REMARK   94  A    between atoms: _231  and  _232
REMARK   95  A    between atoms: _231  and  _234
REMARK   96  A    between atoms: _234  and  _235
REMARK   97  A    between atoms: _235  and  _236
REMARK   98  A    between atoms: _236  and  _237
REMARK   99  A    between atoms: _246  and  _248
REMARK  100  A    between atoms: _248  and  _249
REMARK  101  A    between atoms: _248  and  _251
REMARK  102  A    between atoms: _251  and  _252
REMARK  103  A    between atoms: _257  and  _259
REMARK  104  A    between atoms: _259  and  _260
REMARK  105  A    between atoms: _259  and  _262
REMARK  106  A    between atoms: _262  and  _263
REMARK  107  A    between atoms: _263  and  _264
REMARK  108  A    between atoms: _264  and  _265
REMARK  109  A    between atoms: _274  and  _276
REMARK  110  A    between atoms: _276  and  _277
REMARK  111  A    between atoms: _276  and  _279
REMARK  112  A    between atoms: _279  and  _280
REMARK  113  A    between atoms: _283  and  _285
REMARK  114  A    between atoms: _285  and  _286
REMARK  115  A    between atoms: _285  and  _288
REMARK  116  A    between atoms: _288  and  _289
REMARK  117  A    between atoms: _292  and  _294
REMARK  118  A    between atoms: _294  and  _295
REMARK  119  A    between atoms: _294  and  _297
REMARK  120  A    between atoms: _297  and  _298
REMARK  121  A    between atoms: _301  and  _303
REMARK  122  A    between atoms: _303  and  _304
REMARK  123  A    between atoms: _303  and  _306
REMARK  124  A    between atoms: _306  and  _307
REMARK  125  A    between atoms: _310  and  _312
REMARK  126  A    between atoms: _312  and  _313
REMARK  127  A    between atoms: _315  and  _317
REMARK  128  A    between atoms: _317  and  _318
REMARK  129  A    between atoms: _321  and  _323
REMARK  130  A    between atoms: _323  and  _324
REMARK  131  A    between atoms: _323  and  _326
REMARK  132  A    between atoms: _326  and  _327
REMARK  133  A    between atoms: _330  and  _332
REMARK  134  A    between atoms: _332  and  _333
REMARK  135  A    between atoms: _332  and  _335
REMARK  136  A    between atoms: _335  and  _336
REMARK  137  A    between atoms: _339  and  _341
REMARK  138  A    between atoms: _341  and  _342
REMARK  139  A    between atoms: _341  and  _344
REMARK  140  A    between atoms: _344  and  _345
REMARK  141  A    between atoms: _348  and  _350
REMARK  142  A    between atoms: _350  and  _351
REMARK  143  A    between atoms: _350  and  _353
REMARK  144  A    between atoms: _356  and  _358
REMARK  145  A    between atoms: _358  and  _359
REMARK  146  A    between atoms: _358  and  _361
REMARK  147  A    between atoms: _361  and  _362
REMARK  148  A    between atoms: _362  and  _363
REMARK  149  A    between atoms: _363  and  _364
REMARK  150  A    between atoms: _364  and  _365
REMARK  151  A    between atoms: _369  and  _371
REMARK  152  A    between atoms: _371  and  _372
REMARK  153  A    between atoms: _371  and  _374
REMARK  154  A    between atoms: _374  and  _375
REMARK  155  A    between atoms: _375  and  _376
REMARK  156  A    between atoms: _378  and  _380
REMARK  157  A    between atoms: _380  and  _381
REMARK  158  A    between atoms: _380  and  _383
REMARK  159  A    between atoms: _383  and  _384
REMARK  160  A    between atoms: _387  and  _389
REMARK  161  A    between atoms: _389  and  _390
REMARK  162  A    between atoms: _392  and  _394
REMARK  163  A    between atoms: _394  and  _395
REMARK  164  A    between atoms: _397  and  _399
REMARK  165  A    between atoms: _399  and  _400
REMARK  166  A    between atoms: _399  and  _402
REMARK  167  A    between atoms: _402  and  _403
REMARK  168  A    between atoms: _406  and  _408
REMARK  169  A    between atoms: _408  and  _409
REMARK  170  A    between atoms: _411  and  _413
REMARK  171  A    between atoms: _413  and  _414
REMARK  172  A    between atoms: _416  and  _418
REMARK  173  A    between atoms: _418  and  _419
REMARK  174  A    between atoms: _418  and  _421
REMARK  175  A    between atoms: _421  and  _422
REMARK  176  A    between atoms: _425  and  _427
REMARK  177  A    between atoms: _427  and  _428
REMARK  178  A    between atoms: _427  and  _430
REMARK  179  A    between atoms: _430  and  _431
REMARK  180  A    between atoms: _435  and  _436
REMARK  181  A    between atoms: _441  and  _443
REMARK  182  A    between atoms: _443  and  _444
REMARK  183  A    between atoms: _443  and  _446
REMARK  184  A    between atoms: _449  and  _451
REMARK  185  A    between atoms: _451  and  _452
REMARK  186  A    between atoms: _451  and  _454
REMARK  187  A    between atoms: _454  and  _455
REMARK  188  A    between atoms: _460  and  _462
REMARK  189  A    between atoms: _462  and  _463
REMARK  190  A    between atoms: _462  and  _465
REMARK  191  A    between atoms: _465  and  _466
REMARK  192  A    between atoms: _469  and  _471
REMARK  193  A    between atoms: _471  and  _472
REMARK  194  A    between atoms: _471  and  _474
REMARK  195  A    between atoms: _474  and  _475
REMARK  196  A    between atoms: _478  and  _480
REMARK  197  A    between atoms: _480  and  _481
REMARK  198  A    between atoms: _483  and  _485
REMARK  199  A    between atoms: _485  and  _486
REMARK  200  A    between atoms: _485  and  _488
REMARK  201  A    between atoms: _488  and  _489
REMARK  202  A    between atoms: _489  and  _490
REMARK  203  A    between atoms: _490  and  _491
REMARK                            x       y       z     vdW  Elec       q    Type
REMARK                         _______ _______ _______ _____ _____    ______ ____
ROOT
ATOM      1  NE  ARG A   1      -4.020  24.044  22.412  0.00  0.00    -0.265 N 
ATOM      2  CZ  ARG A   1      -3.027  23.175  22.647  0.00  0.00    +0.342 C 
ATOM      3  NH2 ARG A   1      -2.037  23.473  23.494  0.00  0.00    -0.292 N 
ATOM      4 HH21 ARG A   1      -2.029  24.391  23.983  0.00  0.00    +0.255 HD
ATOM      5 HH22 ARG A   1      -1.274  22.787  23.665  0.00  0.00    +0.255 HD
ATOM      6  NH1 ARG A   1      -3.046  21.994  22.025  0.00  0.00    -0.292 N 
ATOM      7 HH11 ARG A   1      -2.285  21.305  22.193  0.00  0.00    +0.255 HD
ATOM      8 HH12 ARG A   1      -3.822  21.763  21.372  0.00  0.00    +0.255 HD
ATOM      9  HE  ARG A   1      -4.764  23.758  21.744  0.00  0.00    +0.259 HD
ENDROOT
BRANCH   1  10
ATOM     10  CD  ARG A   1      -4.132  25.355  23.022  0.00  0.00    +0.174 C 
BRANCH  10  11
ATOM     11  CG  ARG A   1      -5.214  26.062  22.333  0.00  0.00    +0.045 C 
BRANCH  11  12
ATOM     12  CB  ARG A   1      -5.280  27.392  22.968  0.00  0.00    +0.029 C 
BRANCH  12  13
ATOM     13  CA  ARG A   1      -6.493  28.169  22.522  0.00  0.00    +0.133 C 
BRANCH  13  14
ATOM     14  N   ARG A   1      -6.333  28.867  21.233  0.00  0.00    -0.239 NA
ATOM     15  H   ARG A   1      -5.448  28.728  20.704  0.00  0.00    +0.142 HD
ENDBRANCH  13  14
BRANCH  13  16
ATOM     16  C   ARG A   1      -6.698  29.186  23.641  0.00  0.00    +0.224 C 
ATOM     17  O   ARG A   1      -5.879  30.119  23.700  0.00  0.00    -0.287 OA
ENDBRANCH  13  16
ENDBRANCH  12  13
ENDBRANCH  11  12
ENDBRANCH  10  11
ENDBRANCH   1  10
TORSDOF 6
REMARK  Name = ../refined-set-2016/1hbv/1hbv_pocket.pdb
REMARK  203 active torsions:
REMARK  status: ('A' for Active; 'I' for Inactive)
REMARK    1  A    between atoms: _1  and  _3
REMARK    2  A    between atoms: _3  and  _4
REMARK    3  A    between atoms: _3  and  _6
REMARK    4  A    between atoms: _6  and  _7
REMARK    5  A    between atoms: _7  and  _8
REMARK    6  A    between atoms: _8  and  _9
REMARK    7  A    between atoms: _18  and  _20
REMARK    8  A    between atoms: _20  and  _21
REMARK    9  A    between atoms: _20  and  _23
REMARK   10  A    between atoms: _23  and  _24
REMARK   11  A    between atoms: _27  and  _29
REMARK   12  A    between atoms: _29  and  _30
REMARK   13  A    between atoms: _29  and  _32
REMARK   14  A    between atoms: _32  and  _33
REMARK   15  A    between atoms: _36  and  _38
REMARK   16  A    between atoms: _38  and  _39
REMARK   17  A    between atoms: _38  and  _41
REMARK   18  A    between atoms: _41  and  _42
REMARK   19  A    between atoms: _45  and  _47
REMARK   20  A    between atoms: _47  and  _48
REMARK   21  A    between atoms: _50  and  _52
REMARK   22  A    between atoms: _52  and  _53
REMARK   23  A    between atoms: _56  and  _58
REMARK   24  A    between atoms: _58  and  _59
REMARK   25  A    between atoms: _58  and  _61
REMARK   26  A    between atoms: _61  and  _62
REMARK   27  A    between atoms: _65  and  _67
REMARK   28  A    between atoms: _67  and  _68
REMARK   29  A    between atoms: _67  and  _70
REMARK   30  A    between atoms: _70  and  _71
REMARK   31  A    between atoms: _74  and  _76
REMARK   32  A    between atoms: _76  and  _77
REMARK   33  A    between atoms: _76  and  _79
REMARK   34  A    between atoms: _79  and  _80
REMARK   35  A    between atoms: _83  and  _85
REMARK   36  A    between atoms: _85  and  _86
REMARK   37  A    between atoms: _85  and  _88
REMARK   38  A    between atoms: _91  and  _93
REMARK   39  A    between atoms: _93  and  _94
REMARK   40  A    between atoms: _93  and  _96
REMARK   41  A    between atoms: _96  and  _97
REMARK   42  A    between atoms: _97  and  _98
REMARK   43  A    between atoms: _100  and  _102
REMARK   44  A    between atoms: _102  and  _103
REMARK   45  A    between atoms: _102  and  _105
REMARK   46  A    between atoms: _105  and  _106
REMARK   47  A    between atoms: _109  and  _111
REMARK   48  A    between atoms: _111  and  _112
REMARK   49  A    between atoms: _114  and  _116
REMARK   50  A    between atoms: _116  and  _117
REMARK   51  A    between atoms: _119  and  _121
REMARK   52  A    between atoms: _121  and  _122
REMARK   53  A    between atoms: _121  and  _124
REMARK   54  A    between atoms: _124  and  _125
REMARK   55  A    between atoms: _128  and  _130
REMARK   56  A    between atoms: _130  and  _131
REMARK   57  A    between atoms: _133  and  _135
REMARK   58  A    between atoms: _135  and  _136
REMARK   59  A    between atoms: _138  and  _140
REMARK   60  A    between atoms: _140  and  _141
REMARK   61  A    between atoms: _140  and  _143
REMARK   62  A    between atoms: _143  and  _144
REMARK   63  A    between atoms: _147  and  _149
REMARK   64  A    between atoms: _149  and  _150
REMARK   65  A    between atoms: _149  and  _152
REMARK   66  A    between atoms: _155  and  _157
REMARK   67  A    between atoms: _157  and  _158
REMARK   68  A    between atoms: _157  and  _160
REMARK   69  A    between atoms: _160  and  _161
REMARK   70  A    between atoms: _165  and  _166
REMARK   71  A    between atoms: _171  and  _173
REMARK   72  A    between atoms: _173  and  _174
REMARK   73  A    between atoms: _173  and  _176
REMARK   74  A    between atoms: _176  and  _177
REMARK   75  A    between atoms: _181  and  _182
REMARK   76  A    between atoms: _187  and  _189
REMARK   77  A    between atoms: _189  and  _190
REMARK   78  A    between atoms: _189  and  _192
REMARK   79  A    between atoms: _195  and  _197
REMARK   80  A    between atoms: _197  and  _198
REMARK   81  A    between atoms: _197  and  _200
REMARK   82  A    between atoms: _200  and  _201
REMARK   83  A    between atoms: _206  and  _208
REMARK   84  A    between atoms: _208  and  _209
REMARK   85  A    between atoms: _208  and  _211
REMARK   86  A    between atoms: _211  and  _212
REMARK   87  A    between atoms: _215  and  _217
REMARK   88  A    between atoms: _217  and  _218
REMARK   89  A    between atoms: _217  and  _220
REMARK   90  A    between atoms: _220  and  _221
REMARK   91  A    between atoms: _224  and  _226
REMARK   92  A    between atoms: _226  and  _227
REMARK   93  A    between atoms: _229  and  _231
REMARK   94  A    between atoms: _231  and  _232
REMARK   95  A    between atoms: _231  and  _234
REMARK   96  A    between atoms: _234  and  _235
REMARK   97  A    between atoms: _235  and  _236
REMARK   98  A    between atoms: _236  and  _237
REMARK   99  A    between atoms: _246  and  _248
REMARK  100  A    between atoms: _248  and  _249
REMARK  101  A    between atoms: _248  and  _251
REMARK  102  A    between atoms: _251  and  _252
REMARK  103  A    between atoms: _257  and  _259
REMARK  104  A    between atoms: _259  and  _260
REMARK  105  A    between atoms: _259  and  _262
REMARK  106  A    between atoms: _262  and  _263
REMARK  107  A    between atoms: _263  and  _264
REMARK  108  A    between atoms: _264  and  _265
REMARK  109  A    between atoms: _274  and  _276
REMARK  110  A    between atoms: _276  and  _277
REMARK  111  A    between atoms: _276  and  _279
REMARK  112  A    between atoms: _279  and  _280
REMARK  113  A    between atoms: _283  and  _285
REMARK  114  A    between atoms: _285  and  _286
REMARK  115  A    between atoms: _285  and  _288
REMARK  116  A    between atoms: _288  and  _289
REMARK  117  A    between atoms: _292  and  _294
REMARK  118  A    between atoms: _294  and  _295
REMARK  119  A    between atoms: _294  and  _297
REMARK  120  A    between atoms: _297  and  _298
REMARK  121  A    between atoms: _301  and  _303
REMARK  122  A    between atoms: _303  and  _304
REMARK  123  A    between atoms: _303  and  _306
REMARK  124  A    between atoms: _306  and  _307
REMARK  125  A    between atoms: _310  and  _312
REMARK  126  A    between atoms: _312  and  _313
REMARK  127  A    between atoms: _315  and  _317
REMARK  128  A    between atoms: _317  and  _318
REMARK  129  A    between atoms: _321  and  _323
REMARK  130  A    between atoms: _323  and  _324
REMARK  131  A    between atoms: _323  and  _326
REMARK  132  A    between atoms: _326  and  _327
REMARK  133  A    between atoms: _330  and  _332
REMARK  134  A    between atoms: _332  and  _333
REMARK  135  A    between atoms: _332  and  _335
REMARK  136  A    between atoms: _335  and  _336
REMARK  137  A    between atoms: _339  and  _341
REMARK  138  A    between atoms: _341  and  _342
REMARK  139  A    between atoms: _341  and  _344
REMARK  140  A    between atoms: _344  and  _345
REMARK  141  A    between atoms: _348  and  _350
REMARK  142  A    between atoms: _350  and  _351
REMARK  143  A    between atoms: _350  and  _353
REMARK  144  A    between atoms: _356  and  _358
REMARK  145  A    between atoms: _358  and  _359
REMARK  146  A    between atoms: _358  and  _361
REMARK  147  A    between atoms: _361  and  _362
REMARK  148  A    between atoms: _362  and  _363
REMARK  149  A    between atoms: _363  and  _364
REMARK  150  A    between atoms: _364  and  _365
REMARK  151  A    between atoms: _369  and  _371
REMARK  152  A    between atoms: _371  and  _372
REMARK  153  A    between atoms: _371  and  _374
REMARK  154  A    between atoms: _374  and  _375
REMARK  155  A    between atoms: _375  and  _376
REMARK  156  A    between atoms: _378  and  _380
REMARK  157  A    between atoms: _380  and  _381
REMARK  158  A    between atoms: _380  and  _383
REMARK  159  A    between atoms: _383  and  _384
REMARK  160  A    between atoms: _387  and  _389
REMARK  161  A    between atoms: _389  and  _390
REMARK  162  A    between atoms: _392  and  _394
REMARK  163  A    between atoms: _394  and  _395
REMARK  164  A    between atoms: _397  and  _399
REMARK  165  A    between atoms: _399  and  _400
REMARK  166  A    between atoms: _399  and  _402
REMARK  167  A    between atoms: _402  and  _403
REMARK  168  A    between atoms: _406  and  _408
REMARK  169  A    between atoms: _408  and  _409
REMARK  170  A    between atoms: _411  and  _413
REMARK  171  A    between atoms: _413  and  _414
REMARK  172  A    between atoms: _416  and  _418
REMARK  173  A    between atoms: _418  and  _419
REMARK  174  A    between atoms: _418  and  _421
REMARK  175  A    between atoms: _421  and  _422
REMARK  176  A    between atoms: _425  and  _427
REMARK  177  A    between atoms: _427  and  _428
REMARK  178  A    between atoms: _427  and  _430
REMARK  179  A    between atoms: _430  and  _431
REMARK  180  A    between atoms: _435  and  _436
REMARK  181  A    between atoms: _441  and  _443
REMARK  182  A    between atoms: _443  and  _444
REMARK  183  A    between atoms: _443  and  _446
REMARK  184  A    between atoms: _449  and  _451
REMARK  185  A    between atoms: _451  and  _452
REMARK  186  A    between atoms: _451  and  _454
REMARK  187  A    between atoms: _454  and  _455
REMARK  188  A    between atoms: _460  and  _462
REMARK  189  A    between atoms: _462  and  _463
REMARK  190  A    between atoms: _462  and  _465
REMARK  191  A    between atoms: _465  and  _466
REMARK  192  A    between atoms: _469  and  _471
REMARK  193  A    between atoms: _471  and  _472
REMARK  194  A    between atoms: _471  and  _474
REMARK  195  A    between atoms: _474  and  _475
REMARK  196  A    between atoms: _478  and  _480
REMARK  197  A    between atoms: _480  and  _481
REMARK  198  A    between atoms: _483  and  _485
REMARK  199  A    between atoms: _485  and  _486
REMARK  200  A    between atoms: _485  and  _488
REMARK  201  A    between atoms: _488  and  _489
REMARK  202  A    between atoms: _489  and  _490
REMARK  203  A    between atoms: _490  and  _491
REMARK                            x       y       z     vdW  Elec       q    Type
REMARK                         _______ _______ _______ _____ _____    ______ ____
ROOT
ATOM      1  CA  LEU A   1      -5.777  26.400  29.320  0.00  0.00    +0.133 C 
ENDROOT
BRANCH   1   2
ATOM      2  N   LEU A   1      -4.694  26.443  30.274  0.00  0.00    -0.239 NA
ATOM      3  H   LEU A   1      -4.285  25.535  30.574  0.00  0.00    +0.142 HD
ENDBRANCH   1   2
BRANCH   1   4
ATOM      4  C   LEU A   1      -7.094  26.430  30.080  0.00  0.00    +0.224 C 
ATOM      5  O   LEU A   1      -7.223  25.612  30.999  0.00  0.00    -0.287 OA
ENDBRANCH   1   4
BRANCH   1   6
ATOM      6  CB  LEU A   1      -5.661  25.110  28.542  0.00  0.00    +0.025 C 
BRANCH   6   7
ATOM      7  CG  LEU A   1      -5.928  24.994  27.039  0.00  0.00    +0.002 C 
ATOM      8  CD2 LEU A   1      -6.351  23.556  26.836  0.00  0.00    +0.000 C 
ATOM      9  CD1 LEU A   1      -7.091  25.751  26.537  0.00  0.00    +0.000 C 
ENDBRANCH   6   7
ENDBRANCH   1   6
TORSDOF 4
REMARK  Name = ../refined-set-2016/1hbv/1hbv_pocket.pdb
REMARK  203 active torsions:
REMARK  status: ('A' for Active; 'I' for Inactive)
REMARK    1  A    between atoms: _1  and  _3
REMARK    2  A    between atoms: _3  and  _4
REMARK    3  A    between atoms: _3  and  _6
REMARK    4  A    between atoms: _6  and  _7
REMARK    5  A    between atoms: _7  and  _8
REMARK    6  A    between atoms: _8  and  _9
REMARK    7  A    between atoms: _18  and  _20
REMARK    8  A    between atoms: _20  and  _21
REMARK    9  A    between atoms: _20  and  _23
REMARK   10  A    between atoms: _23  and  _24
REMARK   11  A    between atoms: _27  and  _29
REMARK   12  A    between atoms: _29  and  _30
REMARK   13  A    between atoms: _29  and  _32
REMARK   14  A    between atoms: _32  and  _33
REMARK   15  A    between atoms: _36  and  _38
REMARK   16  A    between atoms: _38  and  _39
REMARK   17  A    between atoms: _38  and  _41
REMARK   18  A    between atoms: _41  and  _42
REMARK   19  A    between atoms: _45  and  _47
REMARK   20  A    between atoms: _47  and  _48
REMARK   21  A    between atoms: _50  and  _52
REMARK   22  A    between atoms: _52  and  _53
REMARK   23  A    between atoms: _56  and  _58
REMARK   24  A    between atoms: _58  and  _59
REMARK   25  A    between atoms: _58  and  _61
REMARK   26  A    between atoms: _61  and  _62
REMARK   27  A    between atoms: _65  and  _67
REMARK   28  A    between atoms: _67  and  _68
REMARK   29  A    between atoms: _67  and  _70
REMARK   30  A    between atoms: _70  and  _71
REMARK   31  A    between atoms: _74  and  _76
REMARK   32  A    between atoms: _76  and  _77
REMARK   33  A    between atoms: _76  and  _79
REMARK   34  A    between atoms: _79  and  _80
REMARK   35  A    between atoms: _83  and  _85
REMARK   36  A    between atoms: _85  and  _86
REMARK   37  A    between atoms: _85  and  _88
REMARK   38  A    between atoms: _91  and  _93
REMARK   39  A    between atoms: _93  and  _94
REMARK   40  A    between atoms: _93  and  _96
REMARK   41  A    between atoms: _96  and  _97
REMARK   42  A    between atoms: _97  and  _98
REMARK   43  A    between atoms: _100  and  _102
REMARK   44  A    between atoms: _102  and  _103
REMARK   45  A    between atoms: _102  and  _105
REMARK   46  A    between atoms: _105  and  _106
REMARK   47  A    between atoms: _109  and  _111
REMARK   48  A    between atoms: _111  and  _112
REMARK   49  A    between atoms: _114  and  _116
REMARK   50  A    between atoms: _116  and  _117
REMARK   51  A    between atoms: _119  and  _121
REMARK   52  A    between atoms: _121  and  _122
REMARK   53  A    between atoms: _121  and  _124
REMARK   54  A    between atoms: _124  and  _125
REMARK   55  A    between atoms: _128  and  _130
REMARK   56  A    between atoms: _130  and  _131
REMARK   57  A    between atoms: _133  and  _135
REMARK   58  A    between atoms: _135  and  _136
REMARK   59  A    between atoms: _138  and  _140
REMARK   60  A    between atoms: _140  and  _141
REMARK   61  A    between atoms: _140  and  _143
REMARK   62  A    between atoms: _143  and  _144
REMARK   63  A    between atoms: _147  and  _149
REMARK   64  A    between atoms: _149  and  _150
REMARK   65  A    between atoms: _149  and  _152
REMARK   66  A    between atoms: _155  and  _157
REMARK   67  A    between atoms: _157  and  _158
REMARK   68  A    between atoms: _157  and  _160
REMARK   69  A    between atoms: _160  and  _161
REMARK   70  A    between atoms: _165  and  _166
REMARK   71  A    between atoms: _171  and  _173
REMARK   72  A    between atoms: _173  and  _174
REMARK   73  A    between atoms: _173  and  _176
REMARK   74  A    between atoms: _176  and  _177
REMARK   75  A    between atoms: _181  and  _182
REMARK   76  A    between atoms: _187  and  _189
REMARK   77  A    between atoms: _189  and  _190
REMARK   78  A    between atoms: _189  and  _192
REMARK   79  A    between atoms: _195  and  _197
REMARK   80  A    between atoms: _197  and  _198
REMARK   81  A    between atoms: _197  and  _200
REMARK   82  A    between atoms: _200  and  _201
REMARK   83  A    between atoms: _206  and  _208
REMARK   84  A    between atoms: _208  and  _209
REMARK   85  A    between atoms: _208  and  _211
REMARK   86  A    between atoms: _211  and  _212
REMARK   87  A    between atoms: _215  and  _217
REMARK   88  A    between atoms: _217  and  _218
REMARK   89  A    between atoms: _217  and  _220
REMARK   90  A    between atoms: _220  and  _221
REMARK   91  A    between atoms: _224  and  _226
REMARK   92  A    between atoms: _226  and  _227
REMARK   93  A    between atoms: _229  and  _231
REMARK   94  A    between atoms: _231  and  _232
REMARK   95  A    between atoms: _231  and  _234
REMARK   96  A    between atoms: _234  and  _235
REMARK   97  A    between atoms: _235  and  _236
REMARK   98  A    between atoms: _236  and  _237
REMARK   99  A    between atoms: _246  and  _248
REMARK  100  A    between atoms: _248  and  _249
REMARK  101  A    between atoms: _248  and  _251
REMARK  102  A    between atoms: _251  and  _252
REMARK  103  A    between atoms: _257  and  _259
REMARK  104  A    between atoms: _259  and  _260
REMARK  105  A    between atoms: _259  and  _262
REMARK  106  A    between atoms: _262  and  _263
REMARK  107  A    between atoms: _263  and  _264
REMARK  108  A    between atoms: _264  and  _265
REMARK  109  A    between atoms: _274  and  _276
REMARK  110  A    between atoms: _276  and  _277
REMARK  111  A    between atoms: _276  and  _279
REMARK  112  A    between atoms: _279  and  _280
REMARK  113  A    between atoms: _283  and  _285
REMARK  114  A    between atoms: _285  and  _286
REMARK  115  A    between atoms: _285  and  _288
REMARK  116  A    between atoms: _288  and  _289
REMARK  117  A    between atoms: _292  and  _294
REMARK  118  A    between atoms: _294  and  _295
REMARK  119  A    between atoms: _294  and  _297
REMARK  120  A    between atoms: _297  and  _298
REMARK  121  A    between atoms: _301  and  _303
REMARK  122  A    between atoms: _303  and  _304
REMARK  123  A    between atoms: _303  and  _306
REMARK  124  A    between atoms: _306  and  _307
REMARK  125  A    between atoms: _310  and  _312
REMARK  126  A    between atoms: _312  and  _313
REMARK  127  A    between atoms: _315  and  _317
REMARK  128  A    between atoms: _317  and  _318
REMARK  129  A    between atoms: _321  and  _323
REMARK  130  A    between atoms: _323  and  _324
REMARK  131  A    between atoms: _323  and  _326
REMARK  132  A    between atoms: _326  and  _327
REMARK  133  A    between atoms: _330  and  _332
REMARK  134  A    between atoms: _332  and  _333
REMARK  135  A    between atoms: _332  and  _335
REMARK  136  A    between atoms: _335  and  _336
REMARK  137  A    between atoms: _339  and  _341
REMARK  138  A    between atoms: _341  and  _342
REMARK  139  A    between atoms: _341  and  _344
REMARK  140  A    between atoms: _344  and  _345
REMARK  141  A    between atoms: _348  and  _350
REMARK  142  A    between atoms: _350  and  _351
REMARK  143  A    between atoms: _350  and  _353
REMARK  144  A    between atoms: _356  and  _358
REMARK  145  A    between atoms: _358  and  _359
REMARK  146  A    between atoms: _358  and  _361
REMARK  147  A    between atoms: _361  and  _362
REMARK  148  A    between atoms: _362  and  _363
REMARK  149  A    between atoms: _363  and  _364
REMARK  150  A    between atoms: _364  and  _365
REMARK  151  A    between atoms: _369  and  _371
REMARK  152  A    between atoms: _371  and  _372
REMARK  153  A    between atoms: _371  and  _374
REMARK  154  A    between atoms: _374  and  _375
REMARK  155  A    between atoms: _375  and  _376
REMARK  156  A    between atoms: _378  and  _380
REMARK  157  A    between atoms: _380  and  _381
REMARK  158  A    between atoms: _380  and  _383
REMARK  159  A    between atoms: _383  and  _384
REMARK  160  A    between atoms: _387  and  _389
REMARK  161  A    between atoms: _389  and  _390
REMARK  162  A    between atoms: _392  and  _394
REMARK  163  A    between atoms: _394  and  _395
REMARK  164  A    between atoms: _397  and  _399
REMARK  165  A    between atoms: _399  and  _400
REMARK  166  A    between atoms: _399  and  _402
REMARK  167  A    between atoms: _402  and  _403
REMARK  168  A    between atoms: _406  and  _408
REMARK  169  A    between atoms: _408  and  _409
REMARK  170  A    between atoms: _411  and  _413
REMARK  171  A    between atoms: _413  and  _414
REMARK  172  A    between atoms: _416  and  _418
REMARK  173  A    between atoms: _418  and  _419
REMARK  174  A    between atoms: _418  and  _421
REMARK  175  A    between atoms: _421  and  _422
REMARK  176  A    between atoms: _425  and  _427
REMARK  177  A    between atoms: _427  and  _428
REMARK  178  A    between atoms: _427  and  _430
REMARK  179  A    between atoms: _430  and  _431
REMARK  180  A    between atoms: _435  and  _436
REMARK  181  A    between atoms: _441  and  _443
REMARK  182  A    between atoms: _443  and  _444
REMARK  183  A    between atoms: _443  and  _446
REMARK  184  A    between atoms: _449  and  _451
REMARK  185  A    between atoms: _451  and  _452
REMARK  186  A    between atoms: _451  and  _454
REMARK  187  A    between atoms: _454  and  _455
REMARK  188  A    between atoms: _460  and  _462
REMARK  189  A    between atoms: _462  and  _463
REMARK  190  A    between atoms: _462  and  _465
REMARK  191  A    between atoms: _465  and  _466
REMARK  192  A    between atoms: _469  and  _471
REMARK  193  A    between atoms: _471  and  _472
REMARK  194  A    between atoms: _471  and  _474
REMARK  195  A    between atoms: _474  and  _475
REMARK  196  A    between atoms: _478  and  _480
REMARK  197  A    between atoms: _480  and  _481
REMARK  198  A    between atoms: _483  and  _485
REMARK  199  A    between atoms: _485  and  _486
REMARK  200  A    between atoms: _485  and  _488
REMARK  201  A    between atoms: _488  and  _489
REMARK  202  A    between atoms: _489  and  _490
REMARK  203  A    between atoms: _490  and  _491
REMARK                            x       y       z     vdW  Elec       q    Type
REMARK                         _______ _______ _______ _____ _____    ______ ____
ROOT
ATOM      1  CA  ASP A   5     -14.251  18.807  35.888  0.00  0.00    +0.160 C 
ENDROOT
BRANCH   1   3
ATOM      2  C   ALA A   4     -13.389  19.542  33.826  0.00  0.00    +0.241 C 
ATOM      3  N   ASP A   5     -13.615  18.564  34.639  0.00  0.00    -0.297 N 
ATOM      4  H   ASP A   5     -13.332  17.597  34.380  0.00  0.00    +0.150 HD
ATOM      5  O   ALA A   4     -13.745  20.693  34.051  0.00  0.00    -0.273 OA
BRANCH   2   6
ATOM      6  CA  ALA A   4     -12.697  19.109  32.557  0.00  0.00    +0.149 C 
ATOM      7  CB  ALA A   4     -11.267  19.639  32.579  0.00  0.00    +0.031 C 
BRANCH   6   9
ATOM      8  C   GLY A   3     -14.191  19.066  30.574  0.00  0.00    +0.243 C 
ATOM      9  N   ALA A   4     -13.487  19.720  31.492  0.00  0.00    -0.297 N 
ATOM     10  H   ALA A   4     -13.500  20.759  31.448  0.00  0.00    +0.150 HD
ATOM     11  O   GLY A   3     -14.306  17.841  30.602  0.00  0.00    -0.273 OA
BRANCH   8  12
ATOM     12  CA  GLY A   3     -14.844  19.895  29.468  0.00  0.00    +0.176 C 
BRANCH  12  15
ATOM     13  C   THR A   2     -15.350  22.162  30.269  0.00  0.00    +0.243 C 
ATOM     14  O   THR A   2     -16.291  21.747  30.934  0.00  0.00    -0.273 OA
ATOM     15  N   GLY A   3     -14.592  21.340  29.538  0.00  0.00    -0.295 N 
ATOM     16  H   GLY A   3     -13.796  21.737  29.000  0.00  0.00    +0.150 HD
BRANCH  13  17
ATOM     17  CA  THR A   2     -15.017  23.642  30.309  0.00  0.00    +0.176 C 
BRANCH  17  20
ATOM     18  C   ASP A   1     -12.565  23.727  30.542  0.00  0.00    +0.239 C 
ATOM     19  O   ASP A   1     -12.605  23.083  31.568  0.00  0.00    -0.274 OA
ATOM     20  N   THR A   2     -13.671  23.966  29.816  0.00  0.00    -0.295 N 
ATOM     21  H   THR A   2     -13.571  24.395  28.874  0.00  0.00    +0.150 HD
BRANCH  18  22
ATOM     22  CA  ASP A   1     -11.198  24.055  30.041  0.00  0.00    +0.156 C 
BRANCH  22  23
ATOM     23  N   ASP A   1     -10.496  25.204  30.581  0.00  0.00    -0.238 NA
ATOM     24  H   ASP A   1     -10.246  25.232  31.590  0.00  0.00    +0.142 HD
ENDBRANCH  22  23
BRANCH  22  25
ATOM     25  CB  ASP A   1     -10.260  22.865  30.238  0.00  0.00    +0.140 C 
BRANCH  25  26
ATOM     26  CG  ASP A   1     -10.468  21.662  29.370  0.00  0.00    +0.367 C 
ATOM     27  OD2 ASP A   1      -9.525  20.903  29.216  0.00  0.00    -0.246 OA
ATOM     28  OD1 ASP A   1     -11.544  21.448  28.812  0.00  0.00    -0.246 OA
ENDBRANCH  25  26
ENDBRANCH  22  25
ENDBRANCH  18  22
ENDBRANCH  17  20
BRANCH  17  29
ATOM     29  CB  THR A   2     -16.087  24.449  29.511  0.00  0.00    +0.137 C 
ATOM     30  CG2 THR A   2     -15.827  25.908  29.765  0.00  0.00    +0.034 C 
BRANCH  29  31
ATOM     31  OG1 THR A   2     -15.988  24.309  28.080  0.00  0.00    -0.382 OA
ATOM     32  HG1 THR A   2     -16.099  23.356  27.834  0.00  0.00    +0.210 HD
ENDBRANCH  29  31
ENDBRANCH  17  29
ENDBRANCH  13  17
ENDBRANCH  12  15
ENDBRANCH   8  12
ENDBRANCH   6   9
ENDBRANCH   2   6
ENDBRANCH   1   3
BRANCH   1  33
ATOM     33  C   ASP A   5     -13.254  19.321  36.898  0.00  0.00    +0.241 C 
ATOM     34  O   ASP A   5     -13.659  20.152  37.733  0.00  0.00    -0.273 OA
ATOM     35  N   ASP A   6     -12.024  18.807  36.736  0.00  0.00    -0.297 N 
ATOM     36  H   ASP A   6     -11.876  18.151  35.942  0.00  0.00    +0.150 HD
BRANCH  35  37
ATOM     37  CA  ASP A   6     -10.887  19.099  37.586  0.00  0.00    +0.160 C 
BRANCH  37  38
ATOM     38  C   ASP A   6      -9.794  19.920  37.003  0.00  0.00    +0.241 C 
ATOM     39  N   THR A   7      -8.974  20.462  37.894  0.00  0.00    -0.295 N 
ATOM     40  H   THR A   7      -9.147  20.296  38.906  0.00  0.00    +0.150 HD
ATOM     41  O   ASP A   6      -9.682  19.971  35.782  0.00  0.00    -0.273 OA
BRANCH  39  42
ATOM     42  CA  THR A   7      -7.836  21.284  37.496  0.00  0.00    +0.176 C 
BRANCH  42  43
ATOM     43  C   THR A   7      -6.699  20.289  37.595  0.00  0.00    +0.243 C 
ATOM     44  O   THR A   7      -6.563  19.606  38.621  0.00  0.00    -0.273 OA
ATOM     45  N   VAL A   8      -5.931  20.160  36.529  0.00  0.00    -0.298 N 
ATOM     46  H   VAL A   8      -6.129  20.735  35.685  0.00  0.00    +0.150 HD
BRANCH  45  47
ATOM     47  CA  VAL A   8      -4.803  19.220  36.512  0.00  0.00    +0.137 C 
BRANCH  47  48
ATOM     48  CB  VAL A   8      -4.985  18.050  35.533  0.00  0.00    +0.026 C 
ATOM     49  CG2 VAL A   8      -6.197  17.255  35.936  0.00  0.00    +0.002 C 
ATOM     50  CG1 VAL A   8      -3.764  17.136  35.583  0.00  0.00    +0.002 C 
ENDBRANCH  47  48
BRANCH  47  51
ATOM     51  C   VAL A   8      -3.620  20.045  36.041  0.00  0.00    +0.227 C 
ATOM     52  O   VAL A   8      -3.729  20.651  34.979  0.00  0.00    -0.286 OA
ENDBRANCH  47  51
ENDBRANCH  45  47
ENDBRANCH  42  43
BRANCH  42  53
ATOM     53  CB  THR A   7      -7.678  22.461  38.481  0.00  0.00    +0.137 C 
ATOM     54  CG2 THR A   7      -6.536  23.399  38.166  0.00  0.00    +0.034 C 
BRANCH  53  55
ATOM     55  OG1 THR A   7      -8.856  23.254  38.328  0.00  0.00    -0.382 OA
ATOM     56  HG1 THR A   7      -9.652  22.706  38.545  0.00  0.00    +0.210 HD
ENDBRANCH  53  55
ENDBRANCH  42  53
ENDBRANCH  39  42
ENDBRANCH  37  38
BRANCH  37  57
ATOM     57  CB  ASP A   6     -10.256  17.818  38.031  0.00  0.00    +0.143 C 
BRANCH  57  58
ATOM     58  CG  ASP A   6     -11.099  17.021  38.986  0.00  0.00    +0.367 C 
ATOM     59  OD2 ASP A   6     -11.412  17.543  40.081  0.00  0.00    -0.246 OA
ATOM     60  OD1 ASP A   6     -11.437  15.866  38.646  0.00  0.00    -0.246 OA
ENDBRANCH  57  58
ENDBRANCH  37  57
ENDBRANCH  35  37
ENDBRANCH   1  33
BRANCH   1  61
ATOM     61  CB  ASP A   5     -14.842  17.546  36.456  0.00  0.00    +0.143 C 
BRANCH  61  62
ATOM     62  CG  ASP A   5     -15.655  16.831  35.434  0.00  0.00    +0.367 C 
ATOM     63  OD2 ASP A   5     -16.775  17.278  35.126  0.00  0.00    -0.246 OA
ATOM     64  OD1 ASP A   5     -15.144  15.841  34.902  0.00  0.00    -0.246 OA
ENDBRANCH  61  62
ENDBRANCH   1  61
TORSDOF 27
REMARK  Name = ../refined-set-2016/1hbv/1hbv_pocket.pdb
REMARK  203 active torsions:
REMARK  status: ('A' for Active; 'I' for Inactive)
REMARK    1  A    between atoms: _1  and  _3
REMARK    2  A    between atoms: _3  and  _4
REMARK    3  A    between atoms: _3  and  _6
REMARK    4  A    between atoms: _6  and  _7
REMARK    5  A    between atoms: _7  and  _8
REMARK    6  A    between atoms: _8  and  _9
REMARK    7  A    between atoms: _18  and  _20
REMARK    8  A    between atoms: _20  and  _21
REMARK    9  A    between atoms: _20  and  _23
REMARK   10  A    between atoms: _23  and  _24
REMARK   11  A    between atoms: _27  and  _29
REMARK   12  A    between atoms: _29  and  _30
REMARK   13  A    between atoms: _29  and  _32
REMARK   14  A    between atoms: _32  and  _33
REMARK   15  A    between atoms: _36  and  _38
REMARK   16  A    between atoms: _38  and  _39
REMARK   17  A    between atoms: _38  and  _41
REMARK   18  A    between atoms: _41  and  _42
REMARK   19  A    between atoms: _45  and  _47
REMARK   20  A    between atoms: _47  and  _48
REMARK   21  A    between atoms: _50  and  _52
REMARK   22  A    between atoms: _52  and  _53
REMARK   23  A    between atoms: _56  and  _58
REMARK   24  A    between atoms: _58  and  _59
REMARK   25  A    between atoms: _58  and  _61
REMARK   26  A    between atoms: _61  and  _62
REMARK   27  A    between atoms: _65  and  _67
REMARK   28  A    between atoms: _67  and  _68
REMARK   29  A    between atoms: _67  and  _70
REMARK   30  A    between atoms: _70  and  _71
REMARK   31  A    between atoms: _74  and  _76
REMARK   32  A    between atoms: _76  and  _77
REMARK   33  A    between atoms: _76  and  _79
REMARK   34  A    between atoms: _79  and  _80
REMARK   35  A    between atoms: _83  and  _85
REMARK   36  A    between atoms: _85  and  _86
REMARK   37  A    between atoms: _85  and  _88
REMARK   38  A    between atoms: _91  and  _93
REMARK   39  A    between atoms: _93  and  _94
REMARK   40  A    between atoms: _93  and  _96
REMARK   41  A    between atoms: _96  and  _97
REMARK   42  A    between atoms: _97  and  _98
REMARK   43  A    between atoms: _100  and  _102
REMARK   44  A    between atoms: _102  and  _103
REMARK   45  A    between atoms: _102  and  _105
REMARK   46  A    between atoms: _105  and  _106
REMARK   47  A    between atoms: _109  and  _111
REMARK   48  A    between atoms: _111  and  _112
REMARK   49  A    between atoms: _114  and  _116
REMARK   50  A    between atoms: _116  and  _117
REMARK   51  A    between atoms: _119  and  _121
REMARK   52  A    between atoms: _121  and  _122
REMARK   53  A    between atoms: _121  and  _124
REMARK   54  A    between atoms: _124  and  _125
REMARK   55  A    between atoms: _128  and  _130
REMARK   56  A    between atoms: _130  and  _131
REMARK   57  A    between atoms: _133  and  _135
REMARK   58  A    between atoms: _135  and  _136
REMARK   59  A    between atoms: _138  and  _140
REMARK   60  A    between atoms: _140  and  _141
REMARK   61  A    between atoms: _140  and  _143
REMARK   62  A    between atoms: _143  and  _144
REMARK   63  A    between atoms: _147  and  _149
REMARK   64  A    between atoms: _149  and  _150
REMARK   65  A    between atoms: _149  and  _152
REMARK   66  A    between atoms: _155  and  _157
REMARK   67  A    between atoms: _157  and  _158
REMARK   68  A    between atoms: _157  and  _160
REMARK   69  A    between atoms: _160  and  _161
REMARK   70  A    between atoms: _165  and  _166
REMARK   71  A    between atoms: _171  and  _173
REMARK   72  A    between atoms: _173  and  _174
REMARK   73  A    between atoms: _173  and  _176
REMARK   74  A    between atoms: _176  and  _177
REMARK   75  A    between atoms: _181  and  _182
REMARK   76  A    between atoms: _187  and  _189
REMARK   77  A    between atoms: _189  and  _190
REMARK   78  A    between atoms: _189  and  _192
REMARK   79  A    between atoms: _195  and  _197
REMARK   80  A    between atoms: _197  and  _198
REMARK   81  A    between atoms: _197  and  _200
REMARK   82  A    between atoms: _200  and  _201
REMARK   83  A    between atoms: _206  and  _208
REMARK   84  A    between atoms: _208  and  _209
REMARK   85  A    between atoms: _208  and  _211
REMARK   86  A    between atoms: _211  and  _212
REMARK   87  A    between atoms: _215  and  _217
REMARK   88  A    between atoms: _217  and  _218
REMARK   89  A    between atoms: _217  and  _220
REMARK   90  A    between atoms: _220  and  _221
REMARK   91  A    between atoms: _224  and  _226
REMARK   92  A    between atoms: _226  and  _227
REMARK   93  A    between atoms: _229  and  _231
REMARK   94  A    between atoms: _231  and  _232
REMARK   95  A    between atoms: _231  and  _234
REMARK   96  A    between atoms: _234  and  _235
REMARK   97  A    between atoms: _235  and  _236
REMARK   98  A    between atoms: _236  and  _237
REMARK   99  A    between atoms: _246  and  _248
REMARK  100  A    between atoms: _248  and  _249
REMARK  101  A    between atoms: _248  and  _251
REMARK  102  A    between atoms: _251  and  _252
REMARK  103  A    between atoms: _257  and  _259
REMARK  104  A    between atoms: _259  and  _260
REMARK  105  A    between atoms: _259  and  _262
REMARK  106  A    between atoms: _262  and  _263
REMARK  107  A    between atoms: _263  and  _264
REMARK  108  A    between atoms: _264  and  _265
REMARK  109  A    between atoms: _274  and  _276
REMARK  110  A    between atoms: _276  and  _277
REMARK  111  A    between atoms: _276  and  _279
REMARK  112  A    between atoms: _279  and  _280
REMARK  113  A    between atoms: _283  and  _285
REMARK  114  A    between atoms: _285  and  _286
REMARK  115  A    between atoms: _285  and  _288
REMARK  116  A    between atoms: _288  and  _289
REMARK  117  A    between atoms: _292  and  _294
REMARK  118  A    between atoms: _294  and  _295
REMARK  119  A    between atoms: _294  and  _297
REMARK  120  A    between atoms: _297  and  _298
REMARK  121  A    between atoms: _301  and  _303
REMARK  122  A    between atoms: _303  and  _304
REMARK  123  A    between atoms: _303  and  _306
REMARK  124  A    between atoms: _306  and  _307
REMARK  125  A    between atoms: _310  and  _312
REMARK  126  A    between atoms: _312  and  _313
REMARK  127  A    between atoms: _315  and  _317
REMARK  128  A    between atoms: _317  and  _318
REMARK  129  A    between atoms: _321  and  _323
REMARK  130  A    between atoms: _323  and  _324
REMARK  131  A    between atoms: _323  and  _326
REMARK  132  A    between atoms: _326  and  _327
REMARK  133  A    between atoms: _330  and  _332
REMARK  134  A    between atoms: _332  and  _333
REMARK  135  A    between atoms: _332  and  _335
REMARK  136  A    between atoms: _335  and  _336
REMARK  137  A    between atoms: _339  and  _341
REMARK  138  A    between atoms: _341  and  _342
REMARK  139  A    between atoms: _341  and  _344
REMARK  140  A    between atoms: _344  and  _345
REMARK  141  A    between atoms: _348  and  _350
REMARK  142  A    between atoms: _350  and  _351
REMARK  143  A    between atoms: _350  and  _353
REMARK  144  A    between atoms: _356  and  _358
REMARK  145  A    between atoms: _358  and  _359
REMARK  146  A    between atoms: _358  and  _361
REMARK  147  A    between atoms: _361  and  _362
REMARK  148  A    between atoms: _362  and  _363
REMARK  149  A    between atoms: _363  and  _364
REMARK  150  A    between atoms: _364  and  _365
REMARK  151  A    between atoms: _369  and  _371
REMARK  152  A    between atoms: _371  and  _372
REMARK  153  A    between atoms: _371  and  _374
REMARK  154  A    between atoms: _374  and  _375
REMARK  155  A    between atoms: _375  and  _376
REMARK  156  A    between atoms: _378  and  _380
REMARK  157  A    between atoms: _380  and  _381
REMARK  158  A    between atoms: _380  and  _383
REMARK  159  A    between atoms: _383  and  _384
REMARK  160  A    between atoms: _387  and  _389
REMARK  161  A    between atoms: _389  and  _390
REMARK  162  A    between atoms: _392  and  _394
REMARK  163  A    between atoms: _394  and  _395
REMARK  164  A    between atoms: _397  and  _399
REMARK  165  A    between atoms: _399  and  _400
REMARK  166  A    between atoms: _399  and  _402
REMARK  167  A    between atoms: _402  and  _403
REMARK  168  A    between atoms: _406  and  _408
REMARK  169  A    between atoms: _408  and  _409
REMARK  170  A    between atoms: _411  and  _413
REMARK  171  A    between atoms: _413  and  _414
REMARK  172  A    between atoms: _416  and  _418
REMARK  173  A    between atoms: _418  and  _419
REMARK  174  A    between atoms: _418  and  _421
REMARK  175  A    between atoms: _421  and  _422
REMARK  176  A    between atoms: _425  and  _427
REMARK  177  A    between atoms: _427  and  _428
REMARK  178  A    between atoms: _427  and  _430
REMARK  179  A    between atoms: _430  and  _431
REMARK  180  A    between atoms: _435  and  _436
REMARK  181  A    between atoms: _441  and  _443
REMARK  182  A    between atoms: _443  and  _444
REMARK  183  A    between atoms: _443  and  _446
REMARK  184  A    between atoms: _449  and  _451
REMARK  185  A    between atoms: _451  and  _452
REMARK  186  A    between atoms: _451  and  _454
REMARK  187  A    between atoms: _454  and  _455
REMARK  188  A    between atoms: _460  and  _462
REMARK  189  A    between atoms: _462  and  _463
REMARK  190  A    between atoms: _462  and  _465
REMARK  191  A    between atoms: _465  and  _466
REMARK  192  A    between atoms: _469  and  _471
REMARK  193  A    between atoms: _471  and  _472
REMARK  194  A    between atoms: _471  and  _474
REMARK  195  A    between atoms: _474  and  _475
REMARK  196  A    between atoms: _478  and  _480
REMARK  197  A    between atoms: _480  and  _481
REMARK  198  A    between atoms: _483  and  _485
REMARK  199  A    between atoms: _485  and  _486
REMARK  200  A    between atoms: _485  and  _488
REMARK  201  A    between atoms: _488  and  _489
REMARK  202  A    between atoms: _489  and  _490
REMARK  203  A    between atoms: _490  and  _491
REMARK                            x       y       z     vdW  Elec       q    Type
REMARK                         _______ _______ _______ _____ _____    ______ ____
ROOT
ATOM      1  C   GLY A   3      -9.516  10.566  32.515  0.00  0.00    +0.243 C 
ATOM      2  O   GLY A   3      -9.924  11.708  32.799  0.00  0.00    -0.273 OA
ATOM      3  N   GLY A   4      -9.113  10.210  31.313  0.00  0.00    -0.295 N 
ATOM      4  H   GLY A   4      -8.788   9.233  31.166  0.00  0.00    +0.150 HD
ENDROOT
BRANCH   1   5
ATOM      5  CA  GLY A   3      -9.461   9.442  33.548  0.00  0.00    +0.176 C 
BRANCH   5   8
ATOM      6  C   ILE A   2      -8.055   9.991  35.454  0.00  0.00    +0.241 C 
ATOM      7  O   ILE A   2      -7.014   9.468  35.025  0.00  0.00    -0.273 OA
ATOM      8  N   GLY A   3      -9.256   9.923  34.902  0.00  0.00    -0.295 N 
ATOM      9  H   GLY A   3     -10.082  10.225  35.458  0.00  0.00    +0.150 HD
BRANCH   6  10
ATOM     10  CA  ILE A   2      -8.073  10.681  36.802  0.00  0.00    +0.148 C 
BRANCH  10  13
ATOM     11  C   MET A   1      -7.387   9.081  38.500  0.00  0.00    +0.238 C 
ATOM     12  O   MET A   1      -8.545   8.820  38.870  0.00  0.00    -0.274 OA
ATOM     13  N   ILE A   2      -7.074   9.956  37.558  0.00  0.00    -0.297 N 
ATOM     14  H   ILE A   2      -6.069  10.130  37.352  0.00  0.00    +0.150 HD
BRANCH  11  15
ATOM     15  CA  MET A   1      -6.187   8.435  39.164  0.00  0.00    +0.146 C 
BRANCH  15  16
ATOM     16  N   MET A   1      -6.316   8.822  40.566  0.00  0.00    -0.238 NA
ATOM     17  H   MET A   1      -7.245   8.686  41.012  0.00  0.00    +0.142 HD
ENDBRANCH  15  16
BRANCH  15  18
ATOM     18  CB  MET A   1      -6.297   6.928  38.902  0.00  0.00    +0.038 C 
BRANCH  18  19
ATOM     19  CG  MET A   1      -5.196   6.080  39.514  0.00  0.00    +0.060 C 
BRANCH  19  20
ATOM     20  SD  MET A   1      -5.847   4.932  40.746  0.00  0.00    -0.139 S 
ATOM     21  CE  MET A   1      -4.929   3.480  40.238  0.00  0.00    +0.069 C 
ENDBRANCH  19  20
ENDBRANCH  18  19
ENDBRANCH  15  18
ENDBRANCH  11  15
ENDBRANCH  10  13
BRANCH  10  22
ATOM     22  CB  ILE A   2      -7.636  12.164  36.788  0.00  0.00    +0.027 C 
ATOM     23  CG2 ILE A   2      -6.410  12.407  35.929  0.00  0.00    +0.002 C 
BRANCH  22  24
ATOM     24  CG1 ILE A   2      -8.760  12.980  36.229  0.00  0.00    +0.002 C 
ATOM     25  CD1 ILE A   2      -8.507  14.444  36.434  0.00  0.00    +0.000 C 
ENDBRANCH  22  24
ENDBRANCH  10  22
ENDBRANCH   6  10
ENDBRANCH   5   8
ENDBRANCH   1   5
BRANCH   3  26
ATOM     26  CA  GLY A   4      -9.102  11.124  30.181  0.00  0.00    +0.176 C 
BRANCH  26  27
ATOM     27  C   GLY A   4      -9.267  10.315  28.925  0.00  0.00    +0.243 C 
ATOM     28  O   GLY A   4      -9.372   9.084  28.994  0.00  0.00    -0.273 OA
ATOM     29  N   ILE A   5      -9.238  10.935  27.768  0.00  0.00    -0.297 N 
ATOM     30  H   ILE A   5      -9.003  11.947  27.714  0.00  0.00    +0.150 HD
BRANCH  29  31
ATOM     31  CA  ILE A   5      -9.541  10.179  26.563  0.00  0.00    +0.149 C 
BRANCH  31  32
ATOM     32  C   ILE A   5      -8.480   9.118  26.198  0.00  0.00    +0.241 C 
ATOM     33  N   GLY A   6      -7.179   9.357  26.419  0.00  0.00    -0.295 N 
ATOM     34  H   GLY A   6      -6.877  10.259  26.840  0.00  0.00    +0.150 HD
ATOM     35  O   ILE A   5      -8.868   8.031  25.740  0.00  0.00    -0.273 OA
BRANCH  33  36
ATOM     36  CA  GLY A   6      -6.194   8.348  26.066  0.00  0.00    +0.176 C 
BRANCH  36  37
ATOM     37  C   GLY A   6      -6.038   7.296  27.165  0.00  0.00    +0.243 C 
ATOM     38  N   GLY A   7      -6.757   7.443  28.290  0.00  0.00    -0.296 N 
ATOM     39  H   GLY A   7      -7.438   8.227  28.349  0.00  0.00    +0.150 HD
ATOM     40  O   GLY A   6      -5.258   6.351  26.996  0.00  0.00    -0.273 OA
BRANCH  38  41
ATOM     41  CA  GLY A   7      -6.620   6.550  29.427  0.00  0.00    +0.163 C 
BRANCH  41  42
ATOM     42  C   GLY A   7      -6.536   7.266  30.770  0.00  0.00    +0.229 C 
ATOM     43  O   GLY A   7      -7.088   8.353  30.983  0.00  0.00    -0.286 OA
ENDBRANCH  41  42
ENDBRANCH  38  41
ENDBRANCH  36  37
ENDBRANCH  33  36
ENDBRANCH  31  32
BRANCH  31  44
ATOM     44  CB  ILE A   5      -9.774  11.122  25.316  0.00  0.00    +0.027 C 
ATOM     45  CG2 ILE A   5     -11.009  12.021  25.548  0.00  0.00    +0.002 C 
BRANCH  44  46
ATOM     46  CG1 ILE A   5      -8.512  11.876  25.021  0.00  0.00    +0.002 C 
ATOM     47  CD1 ILE A   5      -7.881  11.342  23.744  0.00  0.00    +0.000 C 
ENDBRANCH  44  46
ENDBRANCH  31  44
ENDBRANCH  29  31
ENDBRANCH  26  27
ENDBRANCH   3  26
TORSDOF 21
REMARK  Name = ../refined-set-2016/1hbv/1hbv_pocket.pdb
REMARK  203 active torsions:
REMARK  status: ('A' for Active; 'I' for Inactive)
REMARK    1  A    between atoms: _1  and  _3
REMARK    2  A    between atoms: _3  and  _4
REMARK    3  A    between atoms: _3  and  _6
REMARK    4  A    between atoms: _6  and  _7
REMARK    5  A    between atoms: _7  and  _8
REMARK    6  A    between atoms: _8  and  _9
REMARK    7  A    between atoms: _18  and  _20
REMARK    8  A    between atoms: _20  and  _21
REMARK    9  A    between atoms: _20  and  _23
REMARK   10  A    between atoms: _23  and  _24
REMARK   11  A    between atoms: _27  and  _29
REMARK   12  A    between atoms: _29  and  _30
REMARK   13  A    between atoms: _29  and  _32
REMARK   14  A    between atoms: _32  and  _33
REMARK   15  A    between atoms: _36  and  _38
REMARK   16  A    between atoms: _38  and  _39
REMARK   17  A    between atoms: _38  and  _41
REMARK   18  A    between atoms: _41  and  _42
REMARK   19  A    between atoms: _45  and  _47
REMARK   20  A    between atoms: _47  and  _48
REMARK   21  A    between atoms: _50  and  _52
REMARK   22  A    between atoms: _52  and  _53
REMARK   23  A    between atoms: _56  and  _58
REMARK   24  A    between atoms: _58  and  _59
REMARK   25  A    between atoms: _58  and  _61
REMARK   26  A    between atoms: _61  and  _62
REMARK   27  A    between atoms: _65  and  _67
REMARK   28  A    between atoms: _67  and  _68
REMARK   29  A    between atoms: _67  and  _70
REMARK   30  A    between atoms: _70  and  _71
REMARK   31  A    between atoms: _74  and  _76
REMARK   32  A    between atoms: _76  and  _77
REMARK   33  A    between atoms: _76  and  _79
REMARK   34  A    between atoms: _79  and  _80
REMARK   35  A    between atoms: _83  and  _85
REMARK   36  A    between atoms: _85  and  _86
REMARK   37  A    between atoms: _85  and  _88
REMARK   38  A    between atoms: _91  and  _93
REMARK   39  A    between atoms: _93  and  _94
REMARK   40  A    between atoms: _93  and  _96
REMARK   41  A    between atoms: _96  and  _97
REMARK   42  A    between atoms: _97  and  _98
REMARK   43  A    between atoms: _100  and  _102
REMARK   44  A    between atoms: _102  and  _103
REMARK   45  A    between atoms: _102  and  _105
REMARK   46  A    between atoms: _105  and  _106
REMARK   47  A    between atoms: _109  and  _111
REMARK   48  A    between atoms: _111  and  _112
REMARK   49  A    between atoms: _114  and  _116
REMARK   50  A    between atoms: _116  and  _117
REMARK   51  A    between atoms: _119  and  _121
REMARK   52  A    between atoms: _121  and  _122
REMARK   53  A    between atoms: _121  and  _124
REMARK   54  A    between atoms: _124  and  _125
REMARK   55  A    between atoms: _128  and  _130
REMARK   56  A    between atoms: _130  and  _131
REMARK   57  A    between atoms: _133  and  _135
REMARK   58  A    between atoms: _135  and  _136
REMARK   59  A    between atoms: _138  and  _140
REMARK   60  A    between atoms: _140  and  _141
REMARK   61  A    between atoms: _140  and  _143
REMARK   62  A    between atoms: _143  and  _144
REMARK   63  A    between atoms: _147  and  _149
REMARK   64  A    between atoms: _149  and  _150
REMARK   65  A    between atoms: _149  and  _152
REMARK   66  A    between atoms: _155  and  _157
REMARK   67  A    between atoms: _157  and  _158
REMARK   68  A    between atoms: _157  and  _160
REMARK   69  A    between atoms: _160  and  _161
REMARK   70  A    between atoms: _165  and  _166
REMARK   71  A    between atoms: _171  and  _173
REMARK   72  A    between atoms: _173  and  _174
REMARK   73  A    between atoms: _173  and  _176
REMARK   74  A    between atoms: _176  and  _177
REMARK   75  A    between atoms: _181  and  _182
REMARK   76  A    between atoms: _187  and  _189
REMARK   77  A    between atoms: _189  and  _190
REMARK   78  A    between atoms: _189  and  _192
REMARK   79  A    between atoms: _195  and  _197
REMARK   80  A    between atoms: _197  and  _198
REMARK   81  A    between atoms: _197  and  _200
REMARK   82  A    between atoms: _200  and  _201
REMARK   83  A    between atoms: _206  and  _208
REMARK   84  A    between atoms: _208  and  _209
REMARK   85  A    between atoms: _208  and  _211
REMARK   86  A    between atoms: _211  and  _212
REMARK   87  A    between atoms: _215  and  _217
REMARK   88  A    between atoms: _217  and  _218
REMARK   89  A    between atoms: _217  and  _220
REMARK   90  A    between atoms: _220  and  _221
REMARK   91  A    between atoms: _224  and  _226
REMARK   92  A    between atoms: _226  and  _227
REMARK   93  A    between atoms: _229  and  _231
REMARK   94  A    between atoms: _231  and  _232
REMARK   95  A    between atoms: _231  and  _234
REMARK   96  A    between atoms: _234  and  _235
REMARK   97  A    between atoms: _235  and  _236
REMARK   98  A    between atoms: _236  and  _237
REMARK   99  A    between atoms: _246  and  _248
REMARK  100  A    between atoms: _248  and  _249
REMARK  101  A    between atoms: _248  and  _251
REMARK  102  A    between atoms: _251  and  _252
REMARK  103  A    between atoms: _257  and  _259
REMARK  104  A    between atoms: _259  and  _260
REMARK  105  A    between atoms: _259  and  _262
REMARK  106  A    between atoms: _262  and  _263
REMARK  107  A    between atoms: _263  and  _264
REMARK  108  A    between atoms: _264  and  _265
REMARK  109  A    between atoms: _274  and  _276
REMARK  110  A    between atoms: _276  and  _277
REMARK  111  A    between atoms: _276  and  _279
REMARK  112  A    between atoms: _279  and  _280
REMARK  113  A    between atoms: _283  and  _285
REMARK  114  A    between atoms: _285  and  _286
REMARK  115  A    between atoms: _285  and  _288
REMARK  116  A    between atoms: _288  and  _289
REMARK  117  A    between atoms: _292  and  _294
REMARK  118  A    between atoms: _294  and  _295
REMARK  119  A    between atoms: _294  and  _297
REMARK  120  A    between atoms: _297  and  _298
REMARK  121  A    between atoms: _301  and  _303
REMARK  122  A    between atoms: _303  and  _304
REMARK  123  A    between atoms: _303  and  _306
REMARK  124  A    between atoms: _306  and  _307
REMARK  125  A    between atoms: _310  and  _312
REMARK  126  A    between atoms: _312  and  _313
REMARK  127  A    between atoms: _315  and  _317
REMARK  128  A    between atoms: _317  and  _318
REMARK  129  A    between atoms: _321  and  _323
REMARK  130  A    between atoms: _323  and  _324
REMARK  131  A    between atoms: _323  and  _326
REMARK  132  A    between atoms: _326  and  _327
REMARK  133  A    between atoms: _330  and  _332
REMARK  134  A    between atoms: _332  and  _333
REMARK  135  A    between atoms: _332  and  _335
REMARK  136  A    between atoms: _335  and  _336
REMARK  137  A    between atoms: _339  and  _341
REMARK  138  A    between atoms: _341  and  _342
REMARK  139  A    between atoms: _341  and  _344
REMARK  140  A    between atoms: _344  and  _345
REMARK  141  A    between atoms: _348  and  _350
REMARK  142  A    between atoms: _350  and  _351
REMARK  143  A    between atoms: _350  and  _353
REMARK  144  A    between atoms: _356  and  _358
REMARK  145  A    between atoms: _358  and  _359
REMARK  146  A    between atoms: _358  and  _361
REMARK  147  A    between atoms: _361  and  _362
REMARK  148  A    between atoms: _362  and  _363
REMARK  149  A    between atoms: _363  and  _364
REMARK  150  A    between atoms: _364  and  _365
REMARK  151  A    between atoms: _369  and  _371
REMARK  152  A    between atoms: _371  and  _372
REMARK  153  A    between atoms: _371  and  _374
REMARK  154  A    between atoms: _374  and  _375
REMARK  155  A    between atoms: _375  and  _376
REMARK  156  A    between atoms: _378  and  _380
REMARK  157  A    between atoms: _380  and  _381
REMARK  158  A    between atoms: _380  and  _383
REMARK  159  A    between atoms: _383  and  _384
REMARK  160  A    between atoms: _387  and  _389
REMARK  161  A    between atoms: _389  and  _390
REMARK  162  A    between atoms: _392  and  _394
REMARK  163  A    between atoms: _394  and  _395
REMARK  164  A    between atoms: _397  and  _399
REMARK  165  A    between atoms: _399  and  _400
REMARK  166  A    between atoms: _399  and  _402
REMARK  167  A    between atoms: _402  and  _403
REMARK  168  A    between atoms: _406  and  _408
REMARK  169  A    between atoms: _408  and  _409
REMARK  170  A    between atoms: _411  and  _413
REMARK  171  A    between atoms: _413  and  _414
REMARK  172  A    between atoms: _416  and  _418
REMARK  173  A    between atoms: _418  and  _419
REMARK  174  A    between atoms: _418  and  _421
REMARK  175  A    between atoms: _421  and  _422
REMARK  176  A    between atoms: _425  and  _427
REMARK  177  A    between atoms: _427  and  _428
REMARK  178  A    between atoms: _427  and  _430
REMARK  179  A    between atoms: _430  and  _431
REMARK  180  A    between atoms: _435  and  _436
REMARK  181  A    between atoms: _441  and  _443
REMARK  182  A    between atoms: _443  and  _444
REMARK  183  A    between atoms: _443  and  _446
REMARK  184  A    between atoms: _449  and  _451
REMARK  185  A    between atoms: _451  and  _452
REMARK  186  A    between atoms: _451  and  _454
REMARK  187  A    between atoms: _454  and  _455
REMARK  188  A    between atoms: _460  and  _462
REMARK  189  A    between atoms: _462  and  _463
REMARK  190  A    between atoms: _462  and  _465
REMARK  191  A    between atoms: _465  and  _466
REMARK  192  A    between atoms: _469  and  _471
REMARK  193  A    between atoms: _471  and  _472
REMARK  194  A    between atoms: _471  and  _474
REMARK  195  A    between atoms: _474  and  _475
REMARK  196  A    between atoms: _478  and  _480
REMARK  197  A    between atoms: _480  and  _481
REMARK  198  A    between atoms: _483  and  _485
REMARK  199  A    between atoms: _485  and  _486
REMARK  200  A    between atoms: _485  and  _488
REMARK  201  A    between atoms: _488  and  _489
REMARK  202  A    between atoms: _489  and  _490
REMARK  203  A    between atoms: _490  and  _491
REMARK                            x       y       z     vdW  Elec       q    Type
REMARK                         _______ _______ _______ _____ _____    ______ ____
ROOT
ATOM      1  CA  ILE A   1      -2.933   8.939  34.795  0.00  0.00    +0.133 C 
ENDROOT
BRANCH   1   2
ATOM      2  N   ILE A   1      -4.279   8.588  34.301  0.00  0.00    -0.239 NA
ATOM      3  H   ILE A   1      -5.100   9.142  34.618  0.00  0.00    +0.142 HD
ENDBRANCH   1   2
BRANCH   1   4
ATOM      4  C   ILE A   1      -3.139   9.039  36.305  0.00  0.00    +0.224 C 
ATOM      5  O   ILE A   1      -4.279   9.258  36.759  0.00  0.00    -0.287 OA
ENDBRANCH   1   4
BRANCH   1   6
ATOM      6  CB  ILE A   1      -2.302  10.296  34.352  0.00  0.00    +0.023 C 
ATOM      7  CG2 ILE A   1      -1.788   9.964  32.983  0.00  0.00    +0.002 C 
BRANCH   6   8
ATOM      8  CG1 ILE A   1      -3.196  11.526  34.417  0.00  0.00    +0.002 C 
ATOM      9  CD1 ILE A   1      -2.446  12.856  34.288  0.00  0.00    +0.000 C 
ENDBRANCH   6   8
ENDBRANCH   1   6
TORSDOF 4
REMARK  Name = ../refined-set-2016/1hbv/1hbv_pocket.pdb
REMARK  203 active torsions:
REMARK  status: ('A' for Active; 'I' for Inactive)
REMARK    1  A    between atoms: _1  and  _3
REMARK    2  A    between atoms: _3  and  _4
REMARK    3  A    between atoms: _3  and  _6
REMARK    4  A    between atoms: _6  and  _7
REMARK    5  A    between atoms: _7  and  _8
REMARK    6  A    between atoms: _8  and  _9
REMARK    7  A    between atoms: _18  and  _20
REMARK    8  A    between atoms: _20  and  _21
REMARK    9  A    between atoms: _20  and  _23
REMARK   10  A    between atoms: _23  and  _24
REMARK   11  A    between atoms: _27  and  _29
REMARK   12  A    between atoms: _29  and  _30
REMARK   13  A    between atoms: _29  and  _32
REMARK   14  A    between atoms: _32  and  _33
REMARK   15  A    between atoms: _36  and  _38
REMARK   16  A    between atoms: _38  and  _39
REMARK   17  A    between atoms: _38  and  _41
REMARK   18  A    between atoms: _41  and  _42
REMARK   19  A    between atoms: _45  and  _47
REMARK   20  A    between atoms: _47  and  _48
REMARK   21  A    between atoms: _50  and  _52
REMARK   22  A    between atoms: _52  and  _53
REMARK   23  A    between atoms: _56  and  _58
REMARK   24  A    between atoms: _58  and  _59
REMARK   25  A    between atoms: _58  and  _61
REMARK   26  A    between atoms: _61  and  _62
REMARK   27  A    between atoms: _65  and  _67
REMARK   28  A    between atoms: _67  and  _68
REMARK   29  A    between atoms: _67  and  _70
REMARK   30  A    between atoms: _70  and  _71
REMARK   31  A    between atoms: _74  and  _76
REMARK   32  A    between atoms: _76  and  _77
REMARK   33  A    between atoms: _76  and  _79
REMARK   34  A    between atoms: _79  and  _80
REMARK   35  A    between atoms: _83  and  _85
REMARK   36  A    between atoms: _85  and  _86
REMARK   37  A    between atoms: _85  and  _88
REMARK   38  A    between atoms: _91  and  _93
REMARK   39  A    between atoms: _93  and  _94
REMARK   40  A    between atoms: _93  and  _96
REMARK   41  A    between atoms: _96  and  _97
REMARK   42  A    between atoms: _97  and  _98
REMARK   43  A    between atoms: _100  and  _102
REMARK   44  A    between atoms: _102  and  _103
REMARK   45  A    between atoms: _102  and  _105
REMARK   46  A    between atoms: _105  and  _106
REMARK   47  A    between atoms: _109  and  _111
REMARK   48  A    between atoms: _111  and  _112
REMARK   49  A    between atoms: _114  and  _116
REMARK   50  A    between atoms: _116  and  _117
REMARK   51  A    between atoms: _119  and  _121
REMARK   52  A    between atoms: _121  and  _122
REMARK   53  A    between atoms: _121  and  _124
REMARK   54  A    between atoms: _124  and  _125
REMARK   55  A    between atoms: _128  and  _130
REMARK   56  A    between atoms: _130  and  _131
REMARK   57  A    between atoms: _133  and  _135
REMARK   58  A    between atoms: _135  and  _136
REMARK   59  A    between atoms: _138  and  _140
REMARK   60  A    between atoms: _140  and  _141
REMARK   61  A    between atoms: _140  and  _143
REMARK   62  A    between atoms: _143  and  _144
REMARK   63  A    between atoms: _147  and  _149
REMARK   64  A    between atoms: _149  and  _150
REMARK   65  A    between atoms: _149  and  _152
REMARK   66  A    between atoms: _155  and  _157
REMARK   67  A    between atoms: _157  and  _158
REMARK   68  A    between atoms: _157  and  _160
REMARK   69  A    between atoms: _160  and  _161
REMARK   70  A    between atoms: _165  and  _166
REMARK   71  A    between atoms: _171  and  _173
REMARK   72  A    between atoms: _173  and  _174
REMARK   73  A    between atoms: _173  and  _176
REMARK   74  A    between atoms: _176  and  _177
REMARK   75  A    between atoms: _181  and  _182
REMARK   76  A    between atoms: _187  and  _189
REMARK   77  A    between atoms: _189  and  _190
REMARK   78  A    between atoms: _189  and  _192
REMARK   79  A    between atoms: _195  and  _197
REMARK   80  A    between atoms: _197  and  _198
REMARK   81  A    between atoms: _197  and  _200
REMARK   82  A    between atoms: _200  and  _201
REMARK   83  A    between atoms: _206  and  _208
REMARK   84  A    between atoms: _208  and  _209
REMARK   85  A    between atoms: _208  and  _211
REMARK   86  A    between atoms: _211  and  _212
REMARK   87  A    between atoms: _215  and  _217
REMARK   88  A    between atoms: _217  and  _218
REMARK   89  A    between atoms: _217  and  _220
REMARK   90  A    between atoms: _220  and  _221
REMARK   91  A    between atoms: _224  and  _226
REMARK   92  A    between atoms: _226  and  _227
REMARK   93  A    between atoms: _229  and  _231
REMARK   94  A    between atoms: _231  and  _232
REMARK   95  A    between atoms: _231  and  _234
REMARK   96  A    between atoms: _234  and  _235
REMARK   97  A    between atoms: _235  and  _236
REMARK   98  A    between atoms: _236  and  _237
REMARK   99  A    between atoms: _246  and  _248
REMARK  100  A    between atoms: _248  and  _249
REMARK  101  A    between atoms: _248  and  _251
REMARK  102  A    between atoms: _251  and  _252
REMARK  103  A    between atoms: _257  and  _259
REMARK  104  A    between atoms: _259  and  _260
REMARK  105  A    between atoms: _259  and  _262
REMARK  106  A    between atoms: _262  and  _263
REMARK  107  A    between atoms: _263  and  _264
REMARK  108  A    between atoms: _264  and  _265
REMARK  109  A    between atoms: _274  and  _276
REMARK  110  A    between atoms: _276  and  _277
REMARK  111  A    between atoms: _276  and  _279
REMARK  112  A    between atoms: _279  and  _280
REMARK  113  A    between atoms: _283  and  _285
REMARK  114  A    between atoms: _285  and  _286
REMARK  115  A    between atoms: _285  and  _288
REMARK  116  A    between atoms: _288  and  _289
REMARK  117  A    between atoms: _292  and  _294
REMARK  118  A    between atoms: _294  and  _295
REMARK  119  A    between atoms: _294  and  _297
REMARK  120  A    between atoms: _297  and  _298
REMARK  121  A    between atoms: _301  and  _303
REMARK  122  A    between atoms: _303  and  _304
REMARK  123  A    between atoms: _303  and  _306
REMARK  124  A    between atoms: _306  and  _307
REMARK  125  A    between atoms: _310  and  _312
REMARK  126  A    between atoms: _312  and  _313
REMARK  127  A    between atoms: _315  and  _317
REMARK  128  A    between atoms: _317  and  _318
REMARK  129  A    between atoms: _321  and  _323
REMARK  130  A    between atoms: _323  and  _324
REMARK  131  A    between atoms: _323  and  _326
REMARK  132  A    between atoms: _326  and  _327
REMARK  133  A    between atoms: _330  and  _332
REMARK  134  A    between atoms: _332  and  _333
REMARK  135  A    between atoms: _332  and  _335
REMARK  136  A    between atoms: _335  and  _336
REMARK  137  A    between atoms: _339  and  _341
REMARK  138  A    between atoms: _341  and  _342
REMARK  139  A    between atoms: _341  and  _344
REMARK  140  A    between atoms: _344  and  _345
REMARK  141  A    between atoms: _348  and  _350
REMARK  142  A    between atoms: _350  and  _351
REMARK  143  A    between atoms: _350  and  _353
REMARK  144  A    between atoms: _356  and  _358
REMARK  145  A    between atoms: _358  and  _359
REMARK  146  A    between atoms: _358  and  _361
REMARK  147  A    between atoms: _361  and  _362
REMARK  148  A    between atoms: _362  and  _363
REMARK  149  A    between atoms: _363  and  _364
REMARK  150  A    between atoms: _364  and  _365
REMARK  151  A    between atoms: _369  and  _371
REMARK  152  A    between atoms: _371  and  _372
REMARK  153  A    between atoms: _371  and  _374
REMARK  154  A    between atoms: _374  and  _375
REMARK  155  A    between atoms: _375  and  _376
REMARK  156  A    between atoms: _378  and  _380
REMARK  157  A    between atoms: _380  and  _381
REMARK  158  A    between atoms: _380  and  _383
REMARK  159  A    between atoms: _383  and  _384
REMARK  160  A    between atoms: _387  and  _389
REMARK  161  A    between atoms: _389  and  _390
REMARK  162  A    between atoms: _392  and  _394
REMARK  163  A    between atoms: _394  and  _395
REMARK  164  A    between atoms: _397  and  _399
REMARK  165  A    between atoms: _399  and  _400
REMARK  166  A    between atoms: _399  and  _402
REMARK  167  A    between atoms: _402  and  _403
REMARK  168  A    between atoms: _406  and  _408
REMARK  169  A    between atoms: _408  and  _409
REMARK  170  A    between atoms: _411  and  _413
REMARK  171  A    between atoms: _413  and  _414
REMARK  172  A    between atoms: _416  and  _418
REMARK  173  A    between atoms: _418  and  _419
REMARK  174  A    between atoms: _418  and  _421
REMARK  175  A    between atoms: _421  and  _422
REMARK  176  A    between atoms: _425  and  _427
REMARK  177  A    between atoms: _427  and  _428
REMARK  178  A    between atoms: _427  and  _430
REMARK  179  A    between atoms: _430  and  _431
REMARK  180  A    between atoms: _435  and  _436
REMARK  181  A    between atoms: _441  and  _443
REMARK  182  A    between atoms: _443  and  _444
REMARK  183  A    between atoms: _443  and  _446
REMARK  184  A    between atoms: _449  and  _451
REMARK  185  A    between atoms: _451  and  _452
REMARK  186  A    between atoms: _451  and  _454
REMARK  187  A    between atoms: _454  and  _455
REMARK  188  A    between atoms: _460  and  _462
REMARK  189  A    between atoms: _462  and  _463
REMARK  190  A    between atoms: _462  and  _465
REMARK  191  A    between atoms: _465  and  _466
REMARK  192  A    between atoms: _469  and  _471
REMARK  193  A    between atoms: _471  and  _472
REMARK  194  A    between atoms: _471  and  _474
REMARK  195  A    between atoms: _474  and  _475
REMARK  196  A    between atoms: _478  and  _480
REMARK  197  A    between atoms: _480  and  _481
REMARK  198  A    between atoms: _483  and  _485
REMARK  199  A    between atoms: _485  and  _486
REMARK  200  A    between atoms: _485  and  _488
REMARK  201  A    between atoms: _488  and  _489
REMARK  202  A    between atoms: _489  and  _490
REMARK  203  A    between atoms: _490  and  _491
REMARK                            x       y       z     vdW  Elec       q    Type
REMARK                         _______ _______ _______ _____ _____    ______ ____
ROOT
ATOM      1  CA  VAL A   1      -1.809  12.325  40.187  0.00  0.00    +0.133 C 
ENDROOT
BRANCH   1   2
ATOM      2  CB  VAL A   1      -2.839  13.393  39.616  0.00  0.00    +0.023 C 
ATOM      3  CG2 VAL A   1      -4.246  13.099  40.139  0.00  0.00    +0.002 C 
ATOM      4  CG1 VAL A   1      -2.858  13.384  38.072  0.00  0.00    +0.002 C 
ENDBRANCH   1   2
BRANCH   1   5
ATOM      5  N   VAL A   1      -2.153  10.948  39.817  0.00  0.00    -0.239 NA
ATOM      6  H   VAL A   1      -2.910  10.473  40.349  0.00  0.00    +0.142 HD
ENDBRANCH   1   5
BRANCH   1   7
ATOM      7  C   VAL A   1      -1.810  12.388  41.722  0.00  0.00    +0.224 C 
ATOM      8  O   VAL A   1      -2.213  11.461  42.447  0.00  0.00    -0.287 OA
ENDBRANCH   1   7
TORSDOF 3
REMARK  Name = ../refined-set-2016/1hbv/1hbv_pocket.pdb
REMARK  203 active torsions:
REMARK  status: ('A' for Active; 'I' for Inactive)
REMARK    1  A    between atoms: _1  and  _3
REMARK    2  A    between atoms: _3  and  _4
REMARK    3  A    between atoms: _3  and  _6
REMARK    4  A    between atoms: _6  and  _7
REMARK    5  A    between atoms: _7  and  _8
REMARK    6  A    between atoms: _8  and  _9
REMARK    7  A    between atoms: _18  and  _20
REMARK    8  A    between atoms: _20  and  _21
REMARK    9  A    between atoms: _20  and  _23
REMARK   10  A    between atoms: _23  and  _24
REMARK   11  A    between atoms: _27  and  _29
REMARK   12  A    between atoms: _29  and  _30
REMARK   13  A    between atoms: _29  and  _32
REMARK   14  A    between atoms: _32  and  _33
REMARK   15  A    between atoms: _36  and  _38
REMARK   16  A    between atoms: _38  and  _39
REMARK   17  A    between atoms: _38  and  _41
REMARK   18  A    between atoms: _41  and  _42
REMARK   19  A    between atoms: _45  and  _47
REMARK   20  A    between atoms: _47  and  _48
REMARK   21  A    between atoms: _50  and  _52
REMARK   22  A    between atoms: _52  and  _53
REMARK   23  A    between atoms: _56  and  _58
REMARK   24  A    between atoms: _58  and  _59
REMARK   25  A    between atoms: _58  and  _61
REMARK   26  A    between atoms: _61  and  _62
REMARK   27  A    between atoms: _65  and  _67
REMARK   28  A    between atoms: _67  and  _68
REMARK   29  A    between atoms: _67  and  _70
REMARK   30  A    between atoms: _70  and  _71
REMARK   31  A    between atoms: _74  and  _76
REMARK   32  A    between atoms: _76  and  _77
REMARK   33  A    between atoms: _76  and  _79
REMARK   34  A    between atoms: _79  and  _80
REMARK   35  A    between atoms: _83  and  _85
REMARK   36  A    between atoms: _85  and  _86
REMARK   37  A    between atoms: _85  and  _88
REMARK   38  A    between atoms: _91  and  _93
REMARK   39  A    between atoms: _93  and  _94
REMARK   40  A    between atoms: _93  and  _96
REMARK   41  A    between atoms: _96  and  _97
REMARK   42  A    between atoms: _97  and  _98
REMARK   43  A    between atoms: _100  and  _102
REMARK   44  A    between atoms: _102  and  _103
REMARK   45  A    between atoms: _102  and  _105
REMARK   46  A    between atoms: _105  and  _106
REMARK   47  A    between atoms: _109  and  _111
REMARK   48  A    between atoms: _111  and  _112
REMARK   49  A    between atoms: _114  and  _116
REMARK   50  A    between atoms: _116  and  _117
REMARK   51  A    between atoms: _119  and  _121
REMARK   52  A    between atoms: _121  and  _122
REMARK   53  A    between atoms: _121  and  _124
REMARK   54  A    between atoms: _124  and  _125
REMARK   55  A    between atoms: _128  and  _130
REMARK   56  A    between atoms: _130  and  _131
REMARK   57  A    between atoms: _133  and  _135
REMARK   58  A    between atoms: _135  and  _136
REMARK   59  A    between atoms: _138  and  _140
REMARK   60  A    between atoms: _140  and  _141
REMARK   61  A    between atoms: _140  and  _143
REMARK   62  A    between atoms: _143  and  _144
REMARK   63  A    between atoms: _147  and  _149
REMARK   64  A    between atoms: _149  and  _150
REMARK   65  A    between atoms: _149  and  _152
REMARK   66  A    between atoms: _155  and  _157
REMARK   67  A    between atoms: _157  and  _158
REMARK   68  A    between atoms: _157  and  _160
REMARK   69  A    between atoms: _160  and  _161
REMARK   70  A    between atoms: _165  and  _166
REMARK   71  A    between atoms: _171  and  _173
REMARK   72  A    between atoms: _173  and  _174
REMARK   73  A    between atoms: _173  and  _176
REMARK   74  A    between atoms: _176  and  _177
REMARK   75  A    between atoms: _181  and  _182
REMARK   76  A    between atoms: _187  and  _189
REMARK   77  A    between atoms: _189  and  _190
REMARK   78  A    between atoms: _189  and  _192
REMARK   79  A    between atoms: _195  and  _197
REMARK   80  A    between atoms: _197  and  _198
REMARK   81  A    between atoms: _197  and  _200
REMARK   82  A    between atoms: _200  and  _201
REMARK   83  A    between atoms: _206  and  _208
REMARK   84  A    between atoms: _208  and  _209
REMARK   85  A    between atoms: _208  and  _211
REMARK   86  A    between atoms: _211  and  _212
REMARK   87  A    between atoms: _215  and  _217
REMARK   88  A    between atoms: _217  and  _218
REMARK   89  A    between atoms: _217  and  _220
REMARK   90  A    between atoms: _220  and  _221
REMARK   91  A    between atoms: _224  and  _226
REMARK   92  A    between atoms: _226  and  _227
REMARK   93  A    between atoms: _229  and  _231
REMARK   94  A    between atoms: _231  and  _232
REMARK   95  A    between atoms: _231  and  _234
REMARK   96  A    between atoms: _234  and  _235
REMARK   97  A    between atoms: _235  and  _236
REMARK   98  A    between atoms: _236  and  _237
REMARK   99  A    between atoms: _246  and  _248
REMARK  100  A    between atoms: _248  and  _249
REMARK  101  A    between atoms: _248  and  _251
REMARK  102  A    between atoms: _251  and  _252
REMARK  103  A    between atoms: _257  and  _259
REMARK  104  A    between atoms: _259  and  _260
REMARK  105  A    between atoms: _259  and  _262
REMARK  106  A    between atoms: _262  and  _263
REMARK  107  A    between atoms: _263  and  _264
REMARK  108  A    between atoms: _264  and  _265
REMARK  109  A    between atoms: _274  and  _276
REMARK  110  A    between atoms: _276  and  _277
REMARK  111  A    between atoms: _276  and  _279
REMARK  112  A    between atoms: _279  and  _280
REMARK  113  A    between atoms: _283  and  _285
REMARK  114  A    between atoms: _285  and  _286
REMARK  115  A    between atoms: _285  and  _288
REMARK  116  A    between atoms: _288  and  _289
REMARK  117  A    between atoms: _292  and  _294
REMARK  118  A    between atoms: _294  and  _295
REMARK  119  A    between atoms: _294  and  _297
REMARK  120  A    between atoms: _297  and  _298
REMARK  121  A    between atoms: _301  and  _303
REMARK  122  A    between atoms: _303  and  _304
REMARK  123  A    between atoms: _303  and  _306
REMARK  124  A    between atoms: _306  and  _307
REMARK  125  A    between atoms: _310  and  _312
REMARK  126  A    between atoms: _312  and  _313
REMARK  127  A    between atoms: _315  and  _317
REMARK  128  A    between atoms: _317  and  _318
REMARK  129  A    between atoms: _321  and  _323
REMARK  130  A    between atoms: _323  and  _324
REMARK  131  A    between atoms: _323  and  _326
REMARK  132  A    between atoms: _326  and  _327
REMARK  133  A    between atoms: _330  and  _332
REMARK  134  A    between atoms: _332  and  _333
REMARK  135  A    between atoms: _332  and  _335
REMARK  136  A    between atoms: _335  and  _336
REMARK  137  A    between atoms: _339  and  _341
REMARK  138  A    between atoms: _341  and  _342
REMARK  139  A    between atoms: _341  and  _344
REMARK  140  A    between atoms: _344  and  _345
REMARK  141  A    between atoms: _348  and  _350
REMARK  142  A    between atoms: _350  and  _351
REMARK  143  A    between atoms: _350  and  _353
REMARK  144  A    between atoms: _356  and  _358
REMARK  145  A    between atoms: _358  and  _359
REMARK  146  A    between atoms: _358  and  _361
REMARK  147  A    between atoms: _361  and  _362
REMARK  148  A    between atoms: _362  and  _363
REMARK  149  A    between atoms: _363  and  _364
REMARK  150  A    between atoms: _364  and  _365
REMARK  151  A    between atoms: _369  and  _371
REMARK  152  A    between atoms: _371  and  _372
REMARK  153  A    between atoms: _371  and  _374
REMARK  154  A    between atoms: _374  and  _375
REMARK  155  A    between atoms: _375  and  _376
REMARK  156  A    between atoms: _378  and  _380
REMARK  157  A    between atoms: _380  and  _381
REMARK  158  A    between atoms: _380  and  _383
REMARK  159  A    between atoms: _383  and  _384
REMARK  160  A    between atoms: _387  and  _389
REMARK  161  A    between atoms: _389  and  _390
REMARK  162  A    between atoms: _392  and  _394
REMARK  163  A    between atoms: _394  and  _395
REMARK  164  A    between atoms: _397  and  _399
REMARK  165  A    between atoms: _399  and  _400
REMARK  166  A    between atoms: _399  and  _402
REMARK  167  A    between atoms: _402  and  _403
REMARK  168  A    between atoms: _406  and  _408
REMARK  169  A    between atoms: _408  and  _409
REMARK  170  A    between atoms: _411  and  _413
REMARK  171  A    between atoms: _413  and  _414
REMARK  172  A    between atoms: _416  and  _418
REMARK  173  A    between atoms: _418  and  _419
REMARK  174  A    between atoms: _418  and  _421
REMARK  175  A    between atoms: _421  and  _422
REMARK  176  A    between atoms: _425  and  _427
REMARK  177  A    between atoms: _427  and  _428
REMARK  178  A    between atoms: _427  and  _430
REMARK  179  A    between atoms: _430  and  _431
REMARK  180  A    between atoms: _435  and  _436
REMARK  181  A    between atoms: _441  and  _443
REMARK  182  A    between atoms: _443  and  _444
REMARK  183  A    between atoms: _443  and  _446
REMARK  184  A    between atoms: _449  and  _451
REMARK  185  A    between atoms: _451  and  _452
REMARK  186  A    between atoms: _451  and  _454
REMARK  187  A    between atoms: _454  and  _455
REMARK  188  A    between atoms: _460  and  _462
REMARK  189  A    between atoms: _462  and  _463
REMARK  190  A    between atoms: _462  and  _465
REMARK  191  A    between atoms: _465  and  _466
REMARK  192  A    between atoms: _469  and  _471
REMARK  193  A    between atoms: _471  and  _472
REMARK  194  A    between atoms: _471  and  _474
REMARK  195  A    between atoms: _474  and  _475
REMARK  196  A    between atoms: _478  and  _480
REMARK  197  A    between atoms: _480  and  _481
REMARK  198  A    between atoms: _483  and  _485
REMARK  199  A    between atoms: _485  and  _486
REMARK  200  A    between atoms: _485  and  _488
REMARK  201  A    between atoms: _488  and  _489
REMARK  202  A    between atoms: _489  and  _490
REMARK  203  A    between atoms: _490  and  _491
REMARK                            x       y       z     vdW  Elec       q    Type
REMARK                         _______ _______ _______ _____ _____    ______ ____
ROOT
ATOM      1  CA  LEU A   1      -4.195  17.678  40.763  0.00  0.00    +0.133 C 
ENDROOT
BRANCH   1   2
ATOM      2  N   LEU A   1      -4.776  19.023  40.986  0.00  0.00    -0.239 NA
ATOM      3  H   LEU A   1      -5.163  19.534  40.167  0.00  0.00    +0.142 HD
ENDBRANCH   1   2
BRANCH   1   4
ATOM      4  C   LEU A   1      -2.877  17.895  40.061  0.00  0.00    +0.224 C 
ATOM      5  O   LEU A   1      -2.887  18.567  39.035  0.00  0.00    -0.287 OA
ENDBRANCH   1   4
BRANCH   1   6
ATOM      6  CB  LEU A   1      -5.020  16.811  39.863  0.00  0.00    +0.025 C 
BRANCH   6   7
ATOM      7  CG  LEU A   1      -6.417  16.686  40.342  0.00  0.00    +0.002 C 
ATOM      8  CD2 LEU A   1      -6.553  16.243  41.820  0.00  0.00    +0.000 C 
ATOM      9  CD1 LEU A   1      -6.997  15.739  39.317  0.00  0.00    +0.000 C 
ENDBRANCH   6   7
ENDBRANCH   1   6
TORSDOF 4
REMARK  Name = ../refined-set-2016/1hbv/1hbv_pocket.pdb
REMARK  203 active torsions:
REMARK  status: ('A' for Active; 'I' for Inactive)
REMARK    1  A    between atoms: _1  and  _3
REMARK    2  A    between atoms: _3  and  _4
REMARK    3  A    between atoms: _3  and  _6
REMARK    4  A    between atoms: _6  and  _7
REMARK    5  A    between atoms: _7  and  _8
REMARK    6  A    between atoms: _8  and  _9
REMARK    7  A    between atoms: _18  and  _20
REMARK    8  A    between atoms: _20  and  _21
REMARK    9  A    between atoms: _20  and  _23
REMARK   10  A    between atoms: _23  and  _24
REMARK   11  A    between atoms: _27  and  _29
REMARK   12  A    between atoms: _29  and  _30
REMARK   13  A    between atoms: _29  and  _32
REMARK   14  A    between atoms: _32  and  _33
REMARK   15  A    between atoms: _36  and  _38
REMARK   16  A    between atoms: _38  and  _39
REMARK   17  A    between atoms: _38  and  _41
REMARK   18  A    between atoms: _41  and  _42
REMARK   19  A    between atoms: _45  and  _47
REMARK   20  A    between atoms: _47  and  _48
REMARK   21  A    between atoms: _50  and  _52
REMARK   22  A    between atoms: _52  and  _53
REMARK   23  A    between atoms: _56  and  _58
REMARK   24  A    between atoms: _58  and  _59
REMARK   25  A    between atoms: _58  and  _61
REMARK   26  A    between atoms: _61  and  _62
REMARK   27  A    between atoms: _65  and  _67
REMARK   28  A    between atoms: _67  and  _68
REMARK   29  A    between atoms: _67  and  _70
REMARK   30  A    between atoms: _70  and  _71
REMARK   31  A    between atoms: _74  and  _76
REMARK   32  A    between atoms: _76  and  _77
REMARK   33  A    between atoms: _76  and  _79
REMARK   34  A    between atoms: _79  and  _80
REMARK   35  A    between atoms: _83  and  _85
REMARK   36  A    between atoms: _85  and  _86
REMARK   37  A    between atoms: _85  and  _88
REMARK   38  A    between atoms: _91  and  _93
REMARK   39  A    between atoms: _93  and  _94
REMARK   40  A    between atoms: _93  and  _96
REMARK   41  A    between atoms: _96  and  _97
REMARK   42  A    between atoms: _97  and  _98
REMARK   43  A    between atoms: _100  and  _102
REMARK   44  A    between atoms: _102  and  _103
REMARK   45  A    between atoms: _102  and  _105
REMARK   46  A    between atoms: _105  and  _106
REMARK   47  A    between atoms: _109  and  _111
REMARK   48  A    between atoms: _111  and  _112
REMARK   49  A    between atoms: _114  and  _116
REMARK   50  A    between atoms: _116  and  _117
REMARK   51  A    between atoms: _119  and  _121
REMARK   52  A    between atoms: _121  and  _122
REMARK   53  A    between atoms: _121  and  _124
REMARK   54  A    between atoms: _124  and  _125
REMARK   55  A    between atoms: _128  and  _130
REMARK   56  A    between atoms: _130  and  _131
REMARK   57  A    between atoms: _133  and  _135
REMARK   58  A    between atoms: _135  and  _136
REMARK   59  A    between atoms: _138  and  _140
REMARK   60  A    between atoms: _140  and  _141
REMARK   61  A    between atoms: _140  and  _143
REMARK   62  A    between atoms: _143  and  _144
REMARK   63  A    between atoms: _147  and  _149
REMARK   64  A    between atoms: _149  and  _150
REMARK   65  A    between atoms: _149  and  _152
REMARK   66  A    between atoms: _155  and  _157
REMARK   67  A    between atoms: _157  and  _158
REMARK   68  A    between atoms: _157  and  _160
REMARK   69  A    between atoms: _160  and  _161
REMARK   70  A    between atoms: _165  and  _166
REMARK   71  A    between atoms: _171  and  _173
REMARK   72  A    between atoms: _173  and  _174
REMARK   73  A    between atoms: _173  and  _176
REMARK   74  A    between atoms: _176  and  _177
REMARK   75  A    between atoms: _181  and  _182
REMARK   76  A    between atoms: _187  and  _189
REMARK   77  A    between atoms: _189  and  _190
REMARK   78  A    between atoms: _189  and  _192
REMARK   79  A    between atoms: _195  and  _197
REMARK   80  A    between atoms: _197  and  _198
REMARK   81  A    between atoms: _197  and  _200
REMARK   82  A    between atoms: _200  and  _201
REMARK   83  A    between atoms: _206  and  _208
REMARK   84  A    between atoms: _208  and  _209
REMARK   85  A    between atoms: _208  and  _211
REMARK   86  A    between atoms: _211  and  _212
REMARK   87  A    between atoms: _215  and  _217
REMARK   88  A    between atoms: _217  and  _218
REMARK   89  A    between atoms: _217  and  _220
REMARK   90  A    between atoms: _220  and  _221
REMARK   91  A    between atoms: _224  and  _226
REMARK   92  A    between atoms: _226  and  _227
REMARK   93  A    between atoms: _229  and  _231
REMARK   94  A    between atoms: _231  and  _232
REMARK   95  A    between atoms: _231  and  _234
REMARK   96  A    between atoms: _234  and  _235
REMARK   97  A    between atoms: _235  and  _236
REMARK   98  A    between atoms: _236  and  _237
REMARK   99  A    between atoms: _246  and  _248
REMARK  100  A    between atoms: _248  and  _249
REMARK  101  A    between atoms: _248  and  _251
REMARK  102  A    between atoms: _251  and  _252
REMARK  103  A    between atoms: _257  and  _259
REMARK  104  A    between atoms: _259  and  _260
REMARK  105  A    between atoms: _259  and  _262
REMARK  106  A    between atoms: _262  and  _263
REMARK  107  A    between atoms: _263  and  _264
REMARK  108  A    between atoms: _264  and  _265
REMARK  109  A    between atoms: _274  and  _276
REMARK  110  A    between atoms: _276  and  _277
REMARK  111  A    between atoms: _276  and  _279
REMARK  112  A    between atoms: _279  and  _280
REMARK  113  A    between atoms: _283  and  _285
REMARK  114  A    between atoms: _285  and  _286
REMARK  115  A    between atoms: _285  and  _288
REMARK  116  A    between atoms: _288  and  _289
REMARK  117  A    between atoms: _292  and  _294
REMARK  118  A    between atoms: _294  and  _295
REMARK  119  A    between atoms: _294  and  _297
REMARK  120  A    between atoms: _297  and  _298
REMARK  121  A    between atoms: _301  and  _303
REMARK  122  A    between atoms: _303  and  _304
REMARK  123  A    between atoms: _303  and  _306
REMARK  124  A    between atoms: _306  and  _307
REMARK  125  A    between atoms: _310  and  _312
REMARK  126  A    between atoms: _312  and  _313
REMARK  127  A    between atoms: _315  and  _317
REMARK  128  A    between atoms: _317  and  _318
REMARK  129  A    between atoms: _321  and  _323
REMARK  130  A    between atoms: _323  and  _324
REMARK  131  A    between atoms: _323  and  _326
REMARK  132  A    between atoms: _326  and  _327
REMARK  133  A    between atoms: _330  and  _332
REMARK  134  A    between atoms: _332  and  _333
REMARK  135  A    between atoms: _332  and  _335
REMARK  136  A    between atoms: _335  and  _336
REMARK  137  A    between atoms: _339  and  _341
REMARK  138  A    between atoms: _341  and  _342
REMARK  139  A    between atoms: _341  and  _344
REMARK  140  A    between atoms: _344  and  _345
REMARK  141  A    between atoms: _348  and  _350
REMARK  142  A    between atoms: _350  and  _351
REMARK  143  A    between atoms: _350  and  _353
REMARK  144  A    between atoms: _356  and  _358
REMARK  145  A    between atoms: _358  and  _359
REMARK  146  A    between atoms: _358  and  _361
REMARK  147  A    between atoms: _361  and  _362
REMARK  148  A    between atoms: _362  and  _363
REMARK  149  A    between atoms: _363  and  _364
REMARK  150  A    between atoms: _364  and  _365
REMARK  151  A    between atoms: _369  and  _371
REMARK  152  A    between atoms: _371  and  _372
REMARK  153  A    between atoms: _371  and  _374
REMARK  154  A    between atoms: _374  and  _375
REMARK  155  A    between atoms: _375  and  _376
REMARK  156  A    between atoms: _378  and  _380
REMARK  157  A    between atoms: _380  and  _381
REMARK  158  A    between atoms: _380  and  _383
REMARK  159  A    between atoms: _383  and  _384
REMARK  160  A    between atoms: _387  and  _389
REMARK  161  A    between atoms: _389  and  _390
REMARK  162  A    between atoms: _392  and  _394
REMARK  163  A    between atoms: _394  and  _395
REMARK  164  A    between atoms: _397  and  _399
REMARK  165  A    between atoms: _399  and  _400
REMARK  166  A    between atoms: _399  and  _402
REMARK  167  A    between atoms: _402  and  _403
REMARK  168  A    between atoms: _406  and  _408
REMARK  169  A    between atoms: _408  and  _409
REMARK  170  A    between atoms: _411  and  _413
REMARK  171  A    between atoms: _413  and  _414
REMARK  172  A    between atoms: _416  and  _418
REMARK  173  A    between atoms: _418  and  _419
REMARK  174  A    between atoms: _418  and  _421
REMARK  175  A    between atoms: _421  and  _422
REMARK  176  A    between atoms: _425  and  _427
REMARK  177  A    between atoms: _427  and  _428
REMARK  178  A    between atoms: _427  and  _430
REMARK  179  A    between atoms: _430  and  _431
REMARK  180  A    between atoms: _435  and  _436
REMARK  181  A    between atoms: _441  and  _443
REMARK  182  A    between atoms: _443  and  _444
REMARK  183  A    between atoms: _443  and  _446
REMARK  184  A    between atoms: _449  and  _451
REMARK  185  A    between atoms: _451  and  _452
REMARK  186  A    between atoms: _451  and  _454
REMARK  187  A    between atoms: _454  and  _455
REMARK  188  A    between atoms: _460  and  _462
REMARK  189  A    between atoms: _462  and  _463
REMARK  190  A    between atoms: _462  and  _465
REMARK  191  A    between atoms: _465  and  _466
REMARK  192  A    between atoms: _469  and  _471
REMARK  193  A    between atoms: _471  and  _472
REMARK  194  A    between atoms: _471  and  _474
REMARK  195  A    between atoms: _474  and  _475
REMARK  196  A    between atoms: _478  and  _480
REMARK  197  A    between atoms: _480  and  _481
REMARK  198  A    between atoms: _483  and  _485
REMARK  199  A    between atoms: _485  and  _486
REMARK  200  A    between atoms: _485  and  _488
REMARK  201  A    between atoms: _488  and  _489
REMARK  202  A    between atoms: _489  and  _490
REMARK  203  A    between atoms: _490  and  _491
REMARK                            x       y       z     vdW  Elec       q    Type
REMARK                         _______ _______ _______ _____ _____    ______ ____
ROOT
ATOM      1  CA  ILE A   6      -5.866  22.415  32.657  0.00  0.00    +0.149 C 
ENDROOT
BRANCH   1   3
ATOM      2  C   ASN A   5      -3.503  23.126  32.197  0.00  0.00    +0.241 C 
ATOM      3  N   ILE A   6      -4.411  22.381  32.813  0.00  0.00    -0.297 N 
ATOM      4  H   ILE A   6      -4.043  21.685  33.492  0.00  0.00    +0.150 HD
ATOM      5  O   ASN A   5      -3.797  23.967  31.342  0.00  0.00    -0.273 OA
BRANCH   2   6
ATOM      6  CA  ASN A   5      -2.029  22.828  32.571  0.00  0.00    +0.158 C 
BRANCH   6   8
ATOM      7  C   VAL A   4      -1.477  21.405  30.679  0.00  0.00    +0.241 C 
ATOM      8  N   ASN A   5      -1.463  22.588  31.252  0.00  0.00    -0.297 N 
ATOM      9  H   ASN A   5      -1.030  23.384  30.742  0.00  0.00    +0.150 HD
ATOM     10  O   VAL A   4      -1.954  20.407  31.204  0.00  0.00    -0.273 OA
BRANCH   7  11
ATOM     11  CA  VAL A   4      -0.896  21.269  29.299  0.00  0.00    +0.149 C 
BRANCH  11  13
ATOM     12  C   PRO A   3       0.704  19.460  28.791  0.00  0.00    +0.241 C 
ATOM     13  N   VAL A   4      -0.488  19.878  29.221  0.00  0.00    -0.297 N 
ATOM     14  H   VAL A   4      -1.173  19.156  29.522  0.00  0.00    +0.150 HD
ATOM     15  O   PRO A   3       1.599  20.171  28.303  0.00  0.00    -0.273 OA
BRANCH  12  22
ATOM     16  C   THR A   2       0.554  17.260  31.131  0.00  0.00    +0.246 C 
ATOM     17  O   THR A   2       1.640  17.743  31.500  0.00  0.00    -0.273 OA
ATOM     18  N   PRO A   3       0.242  17.126  29.852  0.00  0.00    -0.272 N 
ATOM     19  CD  PRO A   3      -0.513  15.998  29.231  0.00  0.00    +0.094 C 
ATOM     20  CG  PRO A   3      -1.006  16.587  27.959  0.00  0.00    +0.024 C 
ATOM     21  CB  PRO A   3       0.249  17.275  27.507  0.00  0.00    +0.031 C 
ATOM     22  CA  PRO A   3       0.836  17.935  28.791  0.00  0.00    +0.152 C 
BRANCH  16  23
ATOM     23  CA  THR A   2      -0.423  16.498  32.018  0.00  0.00    +0.176 C 
BRANCH  23  25
ATOM     24  C   PRO A   1       0.800  14.716  32.954  0.00  0.00    +0.239 C 
ATOM     25  N   THR A   2       0.494  15.996  32.989  0.00  0.00    -0.295 N 
ATOM     26  H   THR A   2       0.910  16.625  33.706  0.00  0.00    +0.150 HD
ATOM     27  O   PRO A   1       0.209  13.952  32.171  0.00  0.00    -0.274 OA
BRANCH  24  32
ATOM     28  N   PRO A   1       1.389  14.198  35.371  0.00  0.00    -0.210 NA
ATOM     29  CD  PRO A   1       1.242  12.819  35.866  0.00  0.00    +0.089 C 
ATOM     30  CG  PRO A   1       2.356  12.190  35.098  0.00  0.00    +0.021 C 
ATOM     31  CB  PRO A   1       2.088  12.665  33.725  0.00  0.00    +0.028 C 
ATOM     32  CA  PRO A   1       1.803  14.143  33.965  0.00  0.00    +0.149 C 
ENDBRANCH  24  32
ENDBRANCH  23  25
BRANCH  23  33
ATOM     33  CB  THR A   2      -1.547  17.380  32.662  0.00  0.00    +0.137 C 
ATOM     34  CG2 THR A   2      -1.046  18.517  33.466  0.00  0.00    +0.034 C 
BRANCH  33  35
ATOM     35  OG1 THR A   2      -2.369  17.860  31.606  0.00  0.00    -0.382 OA
ATOM     36  HG1 THR A   2      -1.821  18.398  30.981  0.00  0.00    +0.210 HD
ENDBRANCH  33  35
ENDBRANCH  23  33
ENDBRANCH  16  23
ENDBRANCH  12  22
ENDBRANCH  11  13
BRANCH  11  37
ATOM     37  CB  VAL A   4      -2.020  21.596  28.267  0.00  0.00    +0.027 C 
ATOM     38  CG2 VAL A   4      -2.281  23.107  28.259  0.00  0.00    +0.002 C 
ATOM     39  CG1 VAL A   4      -1.614  21.158  26.872  0.00  0.00    +0.002 C 
ENDBRANCH  11  37
ENDBRANCH   7  11
ENDBRANCH   6   8
BRANCH   6  40
ATOM     40  CB  ASN A   5      -1.426  24.051  33.266  0.00  0.00    +0.114 C 
BRANCH  40  41
ATOM     41  CG  ASN A   5       0.038  24.051  33.588  0.00  0.00    +0.222 C 
ATOM     42  OD1 ASN A   5       0.589  23.234  34.326  0.00  0.00    -0.275 OA
ATOM     43  ND2 ASN A   5       0.660  25.049  33.014  0.00  0.00    -0.329 N 
ATOM     44 HD21 ASN A   5       1.679  25.186  33.171  0.00  0.00    +0.145 HD
ATOM     45 HD22 ASN A   5       0.135  25.705  32.401  0.00  0.00    +0.145 HD
ENDBRANCH  40  41
ENDBRANCH   6  40
ENDBRANCH   2   6
ENDBRANCH   1   3
BRANCH   1  46
ATOM     46  C   ILE A   6      -6.567  23.151  33.796  0.00  0.00    +0.241 C 
ATOM     47  O   ILE A   6      -6.347  22.716  34.923  0.00  0.00    -0.273 OA
ATOM     48  N   ILE A   7      -7.335  24.225  33.607  0.00  0.00    -0.297 N 
ATOM     49  H   ILE A   7      -7.433  24.598  32.641  0.00  0.00    +0.150 HD
BRANCH  48  50
ATOM     50  CA  ILE A   7      -8.052  24.910  34.696  0.00  0.00    +0.149 C 
BRANCH  50  51
ATOM     51  C   ILE A   7      -9.469  24.357  34.422  0.00  0.00    +0.241 C 
ATOM     52  N   GLY A   8     -10.067  23.514  35.282  0.00  0.00    -0.295 N 
ATOM     53  H   GLY A   8      -9.603  23.335  36.195  0.00  0.00    +0.150 HD
ATOM     54  O   ILE A   7      -9.996  24.742  33.368  0.00  0.00    -0.273 OA
BRANCH  52  55
ATOM     55  CA  GLY A   8     -11.316  22.843  35.011  0.00  0.00    +0.176 C 
BRANCH  55  56
ATOM     56  C   GLY A   8     -12.446  23.502  35.729  0.00  0.00    +0.243 C 
ATOM     57  O   GLY A   8     -12.238  24.496  36.412  0.00  0.00    -0.273 OA
ATOM     58  N   ARG A   9     -13.645  22.951  35.668  0.00  0.00    -0.297 N 
ATOM     59  H   ARG A   9     -13.742  22.035  35.185  0.00  0.00    +0.150 HD
BRANCH  58  60
ATOM     60  CA  ARG A   9     -14.854  23.566  36.248  0.00  0.00    +0.149 C 
BRANCH  60  61
ATOM     61  C   ARG A   9     -14.947  23.784  37.768  0.00  0.00    +0.241 C 
ATOM     62  N   ASN A  10     -14.155  23.124  38.571  0.00  0.00    -0.298 N 
ATOM     63  H   ASN A  10     -13.492  22.427  38.176  0.00  0.00    +0.150 HD
ATOM     64  O   ARG A   9     -15.753  24.588  38.231  0.00  0.00    -0.273 OA
BRANCH  62  65
ATOM     65  CA  ASN A  10     -14.185  23.349  40.011  0.00  0.00    +0.146 C 
BRANCH  65  66
ATOM     66  C   ASN A  10     -13.616  24.774  40.304  0.00  0.00    +0.227 C 
ATOM     67  O   ASN A  10     -13.860  25.360  41.371  0.00  0.00    -0.286 OA
ENDBRANCH  65  66
BRANCH  65  68
ATOM     68  CB  ASN A  10     -13.317  22.317  40.722  0.00  0.00    +0.112 C 
BRANCH  68  69
ATOM     69  CG  ASN A  10     -11.829  22.389  40.415  0.00  0.00    +0.222 C 
ATOM     70  ND2 ASN A  10     -11.039  22.500  41.453  0.00  0.00    -0.329 N 
ATOM     71 HD21 ASN A  10     -11.441  22.524  42.412  0.00  0.00    +0.145 HD
ATOM     72 HD22 ASN A  10     -10.010  22.564  41.319  0.00  0.00    +0.145 HD
ATOM     73  OD1 ASN A  10     -11.388  22.358  39.270  0.00  0.00    -0.275 OA
ENDBRANCH  68  69
ENDBRANCH  65  68
ENDBRANCH  62  65
ENDBRANCH  60  61
BRANCH  60  74
ATOM     74  CB  ARG A   9     -16.096  22.797  35.826  0.00  0.00    +0.033 C 
BRANCH  74  75
ATOM     75  CG  ARG A   9     -16.439  22.749  34.373  0.00  0.00    +0.045 C 
BRANCH  75  76
ATOM     76  CD  ARG A   9     -17.858  22.136  34.280  0.00  0.00    +0.174 C 
BRANCH  76  77
ATOM     77  NE  ARG A   9     -17.982  20.723  34.655  0.00  0.00    -0.265 N 
ATOM     78  CZ  ARG A   9     -18.550  20.257  35.775  0.00  0.00    +0.342 C 
ATOM     79  NH2 ARG A   9     -19.103  21.016  36.704  0.00  0.00    -0.292 N 
ATOM     80 HH21 ARG A   9     -19.525  20.580  37.548  0.00  0.00    +0.255 HD
ATOM     81 HH22 ARG A   9     -19.116  22.050  36.591  0.00  0.00    +0.255 HD
ATOM     82  NH1 ARG A   9     -18.597  18.968  35.959  0.00  0.00    -0.292 N 
ATOM     83 HH11 ARG A   9     -19.033  18.581  36.820  0.00  0.00    +0.255 HD
ATOM     84 HH12 ARG A   9     -18.199  18.326  35.244  0.00  0.00    +0.255 HD
ATOM     85  HE  ARG A   9     -17.595  20.021  33.993  0.00  0.00    +0.259 HD
ENDBRANCH  76  77
ENDBRANCH  75  76
ENDBRANCH  74  75
ENDBRANCH  60  74
ENDBRANCH  58  60
ENDBRANCH  55  56
ENDBRANCH  52  55
ENDBRANCH  50  51
BRANCH  50  86
ATOM     86  CB  ILE A   7      -8.155  26.470  34.596  0.00  0.00    +0.027 C 
ATOM     87  CG2 ILE A   7      -8.945  26.827  35.844  0.00  0.00    +0.002 C 
BRANCH  86  88
ATOM     88  CG1 ILE A   7      -6.824  27.251  34.560  0.00  0.00    +0.002 C 
ATOM     89  CD1 ILE A   7      -6.010  26.940  35.807  0.00  0.00    +0.000 C 
ENDBRANCH  86  88
ENDBRANCH  50  86
ENDBRANCH  48  50
ENDBRANCH   1  46
BRANCH   1  90
ATOM     90  CB  ILE A   6      -6.427  20.892  32.570  0.00  0.00    +0.027 C 
ATOM     91  CG2 ILE A   6      -7.922  20.863  32.410  0.00  0.00    +0.002 C 
BRANCH  90  92
ATOM     92  CG1 ILE A   6      -5.843  20.168  31.362  0.00  0.00    +0.002 C 
ATOM     93  CD1 ILE A   6      -6.136  20.810  30.000  0.00  0.00    +0.000 C 
ENDBRANCH  90  92
ENDBRANCH   1  90
TORSDOF 33
REMARK  Name = ../refined-set-2016/1hbv/1hbv_pocket.pdb
REMARK  203 active torsions:
REMARK  status: ('A' for Active; 'I' for Inactive)
REMARK    1  A    between atoms: _1  and  _3
REMARK    2  A    between atoms: _3  and  _4
REMARK    3  A    between atoms: _3  and  _6
REMARK    4  A    between atoms: _6  and  _7
REMARK    5  A    between atoms: _7  and  _8
REMARK    6  A    between atoms: _8  and  _9
REMARK    7  A    between atoms: _18  and  _20
REMARK    8  A    between atoms: _20  and  _21
REMARK    9  A    between atoms: _20  and  _23
REMARK   10  A    between atoms: _23  and  _24
REMARK   11  A    between atoms: _27  and  _29
REMARK   12  A    between atoms: _29  and  _30
REMARK   13  A    between atoms: _29  and  _32
REMARK   14  A    between atoms: _32  and  _33
REMARK   15  A    between atoms: _36  and  _38
REMARK   16  A    between atoms: _38  and  _39
REMARK   17  A    between atoms: _38  and  _41
REMARK   18  A    between atoms: _41  and  _42
REMARK   19  A    between atoms: _45  and  _47
REMARK   20  A    between atoms: _47  and  _48
REMARK   21  A    between atoms: _50  and  _52
REMARK   22  A    between atoms: _52  and  _53
REMARK   23  A    between atoms: _56  and  _58
REMARK   24  A    between atoms: _58  and  _59
REMARK   25  A    between atoms: _58  and  _61
REMARK   26  A    between atoms: _61  and  _62
REMARK   27  A    between atoms: _65  and  _67
REMARK   28  A    between atoms: _67  and  _68
REMARK   29  A    between atoms: _67  and  _70
REMARK   30  A    between atoms: _70  and  _71
REMARK   31  A    between atoms: _74  and  _76
REMARK   32  A    between atoms: _76  and  _77
REMARK   33  A    between atoms: _76  and  _79
REMARK   34  A    between atoms: _79  and  _80
REMARK   35  A    between atoms: _83  and  _85
REMARK   36  A    between atoms: _85  and  _86
REMARK   37  A    between atoms: _85  and  _88
REMARK   38  A    between atoms: _91  and  _93
REMARK   39  A    between atoms: _93  and  _94
REMARK   40  A    between atoms: _93  and  _96
REMARK   41  A    between atoms: _96  and  _97
REMARK   42  A    between atoms: _97  and  _98
REMARK   43  A    between atoms: _100  and  _102
REMARK   44  A    between atoms: _102  and  _103
REMARK   45  A    between atoms: _102  and  _105
REMARK   46  A    between atoms: _105  and  _106
REMARK   47  A    between atoms: _109  and  _111
REMARK   48  A    between atoms: _111  and  _112
REMARK   49  A    between atoms: _114  and  _116
REMARK   50  A    between atoms: _116  and  _117
REMARK   51  A    between atoms: _119  and  _121
REMARK   52  A    between atoms: _121  and  _122
REMARK   53  A    between atoms: _121  and  _124
REMARK   54  A    between atoms: _124  and  _125
REMARK   55  A    between atoms: _128  and  _130
REMARK   56  A    between atoms: _130  and  _131
REMARK   57  A    between atoms: _133  and  _135
REMARK   58  A    between atoms: _135  and  _136
REMARK   59  A    between atoms: _138  and  _140
REMARK   60  A    between atoms: _140  and  _141
REMARK   61  A    between atoms: _140  and  _143
REMARK   62  A    between atoms: _143  and  _144
REMARK   63  A    between atoms: _147  and  _149
REMARK   64  A    between atoms: _149  and  _150
REMARK   65  A    between atoms: _149  and  _152
REMARK   66  A    between atoms: _155  and  _157
REMARK   67  A    between atoms: _157  and  _158
REMARK   68  A    between atoms: _157  and  _160
REMARK   69  A    between atoms: _160  and  _161
REMARK   70  A    between atoms: _165  and  _166
REMARK   71  A    between atoms: _171  and  _173
REMARK   72  A    between atoms: _173  and  _174
REMARK   73  A    between atoms: _173  and  _176
REMARK   74  A    between atoms: _176  and  _177
REMARK   75  A    between atoms: _181  and  _182
REMARK   76  A    between atoms: _187  and  _189
REMARK   77  A    between atoms: _189  and  _190
REMARK   78  A    between atoms: _189  and  _192
REMARK   79  A    between atoms: _195  and  _197
REMARK   80  A    between atoms: _197  and  _198
REMARK   81  A    between atoms: _197  and  _200
REMARK   82  A    between atoms: _200  and  _201
REMARK   83  A    between atoms: _206  and  _208
REMARK   84  A    between atoms: _208  and  _209
REMARK   85  A    between atoms: _208  and  _211
REMARK   86  A    between atoms: _211  and  _212
REMARK   87  A    between atoms: _215  and  _217
REMARK   88  A    between atoms: _217  and  _218
REMARK   89  A    between atoms: _217  and  _220
REMARK   90  A    between atoms: _220  and  _221
REMARK   91  A    between atoms: _224  and  _226
REMARK   92  A    between atoms: _226  and  _227
REMARK   93  A    between atoms: _229  and  _231
REMARK   94  A    between atoms: _231  and  _232
REMARK   95  A    between atoms: _231  and  _234
REMARK   96  A    between atoms: _234  and  _235
REMARK   97  A    between atoms: _235  and  _236
REMARK   98  A    between atoms: _236  and  _237
REMARK   99  A    between atoms: _246  and  _248
REMARK  100  A    between atoms: _248  and  _249
REMARK  101  A    between atoms: _248  and  _251
REMARK  102  A    between atoms: _251  and  _252
REMARK  103  A    between atoms: _257  and  _259
REMARK  104  A    between atoms: _259  and  _260
REMARK  105  A    between atoms: _259  and  _262
REMARK  106  A    between atoms: _262  and  _263
REMARK  107  A    between atoms: _263  and  _264
REMARK  108  A    between atoms: _264  and  _265
REMARK  109  A    between atoms: _274  and  _276
REMARK  110  A    between atoms: _276  and  _277
REMARK  111  A    between atoms: _276  and  _279
REMARK  112  A    between atoms: _279  and  _280
REMARK  113  A    between atoms: _283  and  _285
REMARK  114  A    between atoms: _285  and  _286
REMARK  115  A    between atoms: _285  and  _288
REMARK  116  A    between atoms: _288  and  _289
REMARK  117  A    between atoms: _292  and  _294
REMARK  118  A    between atoms: _294  and  _295
REMARK  119  A    between atoms: _294  and  _297
REMARK  120  A    between atoms: _297  and  _298
REMARK  121  A    between atoms: _301  and  _303
REMARK  122  A    between atoms: _303  and  _304
REMARK  123  A    between atoms: _303  and  _306
REMARK  124  A    between atoms: _306  and  _307
REMARK  125  A    between atoms: _310  and  _312
REMARK  126  A    between atoms: _312  and  _313
REMARK  127  A    between atoms: _315  and  _317
REMARK  128  A    between atoms: _317  and  _318
REMARK  129  A    between atoms: _321  and  _323
REMARK  130  A    between atoms: _323  and  _324
REMARK  131  A    between atoms: _323  and  _326
REMARK  132  A    between atoms: _326  and  _327
REMARK  133  A    between atoms: _330  and  _332
REMARK  134  A    between atoms: _332  and  _333
REMARK  135  A    between atoms: _332  and  _335
REMARK  136  A    between atoms: _335  and  _336
REMARK  137  A    between atoms: _339  and  _341
REMARK  138  A    between atoms: _341  and  _342
REMARK  139  A    between atoms: _341  and  _344
REMARK  140  A    between atoms: _344  and  _345
REMARK  141  A    between atoms: _348  and  _350
REMARK  142  A    between atoms: _350  and  _351
REMARK  143  A    between atoms: _350  and  _353
REMARK  144  A    between atoms: _356  and  _358
REMARK  145  A    between atoms: _358  and  _359
REMARK  146  A    between atoms: _358  and  _361
REMARK  147  A    between atoms: _361  and  _362
REMARK  148  A    between atoms: _362  and  _363
REMARK  149  A    between atoms: _363  and  _364
REMARK  150  A    between atoms: _364  and  _365
REMARK  151  A    between atoms: _369  and  _371
REMARK  152  A    between atoms: _371  and  _372
REMARK  153  A    between atoms: _371  and  _374
REMARK  154  A    between atoms: _374  and  _375
REMARK  155  A    between atoms: _375  and  _376
REMARK  156  A    between atoms: _378  and  _380
REMARK  157  A    between atoms: _380  and  _381
REMARK  158  A    between atoms: _380  and  _383
REMARK  159  A    between atoms: _383  and  _384
REMARK  160  A    between atoms: _387  and  _389
REMARK  161  A    between atoms: _389  and  _390
REMARK  162  A    between atoms: _392  and  _394
REMARK  163  A    between atoms: _394  and  _395
REMARK  164  A    between atoms: _397  and  _399
REMARK  165  A    between atoms: _399  and  _400
REMARK  166  A    between atoms: _399  and  _402
REMARK  167  A    between atoms: _402  and  _403
REMARK  168  A    between atoms: _406  and  _408
REMARK  169  A    between atoms: _408  and  _409
REMARK  170  A    between atoms: _411  and  _413
REMARK  171  A    between atoms: _413  and  _414
REMARK  172  A    between atoms: _416  and  _418
REMARK  173  A    between atoms: _418  and  _419
REMARK  174  A    between atoms: _418  and  _421
REMARK  175  A    between atoms: _421  and  _422
REMARK  176  A    between atoms: _425  and  _427
REMARK  177  A    between atoms: _427  and  _428
REMARK  178  A    between atoms: _427  and  _430
REMARK  179  A    between atoms: _430  and  _431
REMARK  180  A    between atoms: _435  and  _436
REMARK  181  A    between atoms: _441  and  _443
REMARK  182  A    between atoms: _443  and  _444
REMARK  183  A    between atoms: _443  and  _446
REMARK  184  A    between atoms: _449  and  _451
REMARK  185  A    between atoms: _451  and  _452
REMARK  186  A    between atoms: _451  and  _454
REMARK  187  A    between atoms: _454  and  _455
REMARK  188  A    between atoms: _460  and  _462
REMARK  189  A    between atoms: _462  and  _463
REMARK  190  A    between atoms: _462  and  _465
REMARK  191  A    between atoms: _465  and  _466
REMARK  192  A    between atoms: _469  and  _471
REMARK  193  A    between atoms: _471  and  _472
REMARK  194  A    between atoms: _471  and  _474
REMARK  195  A    between atoms: _474  and  _475
REMARK  196  A    between atoms: _478  and  _480
REMARK  197  A    between atoms: _480  and  _481
REMARK  198  A    between atoms: _483  and  _485
REMARK  199  A    between atoms: _485  and  _486
REMARK  200  A    between atoms: _485  and  _488
REMARK  201  A    between atoms: _488  and  _489
REMARK  202  A    between atoms: _489  and  _490
REMARK  203  A    between atoms: _490  and  _491
REMARK                            x       y       z     vdW  Elec       q    Type
REMARK                         _______ _______ _______ _____ _____    ______ ____
ROOT
ATOM      1  NE  ARG A   1     -18.998  15.428  33.013  0.00  0.00    -0.265 N 
ATOM      2  HE  ARG A   1     -19.644  14.956  33.677  0.00  0.00    +0.259 HD
ATOM      3  CZ  ARG A   1     -17.802  14.895  32.834  0.00  0.00    +0.342 C 
ATOM      4  NH2 ARG A   1     -17.536  13.782  33.505  0.00  0.00    -0.292 N 
ATOM      5 HH21 ARG A   1     -18.254  13.371  34.135  0.00  0.00    +0.255 HD
ATOM      6 HH22 ARG A   1     -16.610  13.321  33.401  0.00  0.00    +0.255 HD
ATOM      7  NH1 ARG A   1     -16.869  15.480  32.070  0.00  0.00    -0.292 N 
ATOM      8 HH11 ARG A   1     -15.938  15.032  31.951  0.00  0.00    +0.255 HD
ATOM      9 HH12 ARG A   1     -17.076  16.382  31.596  0.00  0.00    +0.255 HD
ENDROOT
BRANCH   1  10
ATOM     10  CD  ARG A   1     -19.469  16.623  32.348  0.00  0.00    +0.174 C 
BRANCH  10  11
ATOM     11  CG  ARG A   1     -20.454  17.353  33.194  0.00  0.00    +0.045 C 
BRANCH  11  12
ATOM     12  CB  ARG A   1     -21.090  18.303  32.242  0.00  0.00    +0.029 C 
BRANCH  12  13
ATOM     13  CA  ARG A   1     -21.164  19.713  32.748  0.00  0.00    +0.133 C 
BRANCH  13  14
ATOM     14  N   ARG A   1     -21.923  19.833  34.005  0.00  0.00    -0.239 NA
ATOM     15  H   ARG A   1     -22.322  18.979  34.444  0.00  0.00    +0.142 HD
ENDBRANCH  13  14
BRANCH  13  16
ATOM     16  C   ARG A   1     -21.862  20.509  31.661  0.00  0.00    +0.224 C 
ATOM     17  O   ARG A   1     -23.087  20.469  31.692  0.00  0.00    -0.287 OA
ENDBRANCH  13  16
ENDBRANCH  12  13
ENDBRANCH  11  12
ENDBRANCH  10  11
ENDBRANCH   1  10
TORSDOF 6
REMARK  Name = ../refined-set-2016/1hbv/1hbv_pocket.pdb
REMARK  203 active torsions:
REMARK  status: ('A' for Active; 'I' for Inactive)
REMARK    1  A    between atoms: _1  and  _3
REMARK    2  A    between atoms: _3  and  _4
REMARK    3  A    between atoms: _3  and  _6
REMARK    4  A    between atoms: _6  and  _7
REMARK    5  A    between atoms: _7  and  _8
REMARK    6  A    between atoms: _8  and  _9
REMARK    7  A    between atoms: _18  and  _20
REMARK    8  A    between atoms: _20  and  _21
REMARK    9  A    between atoms: _20  and  _23
REMARK   10  A    between atoms: _23  and  _24
REMARK   11  A    between atoms: _27  and  _29
REMARK   12  A    between atoms: _29  and  _30
REMARK   13  A    between atoms: _29  and  _32
REMARK   14  A    between atoms: _32  and  _33
REMARK   15  A    between atoms: _36  and  _38
REMARK   16  A    between atoms: _38  and  _39
REMARK   17  A    between atoms: _38  and  _41
REMARK   18  A    between atoms: _41  and  _42
REMARK   19  A    between atoms: _45  and  _47
REMARK   20  A    between atoms: _47  and  _48
REMARK   21  A    between atoms: _50  and  _52
REMARK   22  A    between atoms: _52  and  _53
REMARK   23  A    between atoms: _56  and  _58
REMARK   24  A    between atoms: _58  and  _59
REMARK   25  A    between atoms: _58  and  _61
REMARK   26  A    between atoms: _61  and  _62
REMARK   27  A    between atoms: _65  and  _67
REMARK   28  A    between atoms: _67  and  _68
REMARK   29  A    between atoms: _67  and  _70
REMARK   30  A    between atoms: _70  and  _71
REMARK   31  A    between atoms: _74  and  _76
REMARK   32  A    between atoms: _76  and  _77
REMARK   33  A    between atoms: _76  and  _79
REMARK   34  A    between atoms: _79  and  _80
REMARK   35  A    between atoms: _83  and  _85
REMARK   36  A    between atoms: _85  and  _86
REMARK   37  A    between atoms: _85  and  _88
REMARK   38  A    between atoms: _91  and  _93
REMARK   39  A    between atoms: _93  and  _94
REMARK   40  A    between atoms: _93  and  _96
REMARK   41  A    between atoms: _96  and  _97
REMARK   42  A    between atoms: _97  and  _98
REMARK   43  A    between atoms: _100  and  _102
REMARK   44  A    between atoms: _102  and  _103
REMARK   45  A    between atoms: _102  and  _105
REMARK   46  A    between atoms: _105  and  _106
REMARK   47  A    between atoms: _109  and  _111
REMARK   48  A    between atoms: _111  and  _112
REMARK   49  A    between atoms: _114  and  _116
REMARK   50  A    between atoms: _116  and  _117
REMARK   51  A    between atoms: _119  and  _121
REMARK   52  A    between atoms: _121  and  _122
REMARK   53  A    between atoms: _121  and  _124
REMARK   54  A    between atoms: _124  and  _125
REMARK   55  A    between atoms: _128  and  _130
REMARK   56  A    between atoms: _130  and  _131
REMARK   57  A    between atoms: _133  and  _135
REMARK   58  A    between atoms: _135  and  _136
REMARK   59  A    between atoms: _138  and  _140
REMARK   60  A    between atoms: _140  and  _141
REMARK   61  A    between atoms: _140  and  _143
REMARK   62  A    between atoms: _143  and  _144
REMARK   63  A    between atoms: _147  and  _149
REMARK   64  A    between atoms: _149  and  _150
REMARK   65  A    between atoms: _149  and  _152
REMARK   66  A    between atoms: _155  and  _157
REMARK   67  A    between atoms: _157  and  _158
REMARK   68  A    between atoms: _157  and  _160
REMARK   69  A    between atoms: _160  and  _161
REMARK   70  A    between atoms: _165  and  _166
REMARK   71  A    between atoms: _171  and  _173
REMARK   72  A    between atoms: _173  and  _174
REMARK   73  A    between atoms: _173  and  _176
REMARK   74  A    between atoms: _176  and  _177
REMARK   75  A    between atoms: _181  and  _182
REMARK   76  A    between atoms: _187  and  _189
REMARK   77  A    between atoms: _189  and  _190
REMARK   78  A    between atoms: _189  and  _192
REMARK   79  A    between atoms: _195  and  _197
REMARK   80  A    between atoms: _197  and  _198
REMARK   81  A    between atoms: _197  and  _200
REMARK   82  A    between atoms: _200  and  _201
REMARK   83  A    between atoms: _206  and  _208
REMARK   84  A    between atoms: _208  and  _209
REMARK   85  A    between atoms: _208  and  _211
REMARK   86  A    between atoms: _211  and  _212
REMARK   87  A    between atoms: _215  and  _217
REMARK   88  A    between atoms: _217  and  _218
REMARK   89  A    between atoms: _217  and  _220
REMARK   90  A    between atoms: _220  and  _221
REMARK   91  A    between atoms: _224  and  _226
REMARK   92  A    between atoms: _226  and  _227
REMARK   93  A    between atoms: _229  and  _231
REMARK   94  A    between atoms: _231  and  _232
REMARK   95  A    between atoms: _231  and  _234
REMARK   96  A    between atoms: _234  and  _235
REMARK   97  A    between atoms: _235  and  _236
REMARK   98  A    between atoms: _236  and  _237
REMARK   99  A    between atoms: _246  and  _248
REMARK  100  A    between atoms: _248  and  _249
REMARK  101  A    between atoms: _248  and  _251
REMARK  102  A    between atoms: _251  and  _252
REMARK  103  A    between atoms: _257  and  _259
REMARK  104  A    between atoms: _259  and  _260
REMARK  105  A    between atoms: _259  and  _262
REMARK  106  A    between atoms: _262  and  _263
REMARK  107  A    between atoms: _263  and  _264
REMARK  108  A    between atoms: _264  and  _265
REMARK  109  A    between atoms: _274  and  _276
REMARK  110  A    between atoms: _276  and  _277
REMARK  111  A    between atoms: _276  and  _279
REMARK  112  A    between atoms: _279  and  _280
REMARK  113  A    between atoms: _283  and  _285
REMARK  114  A    between atoms: _285  and  _286
REMARK  115  A    between atoms: _285  and  _288
REMARK  116  A    between atoms: _288  and  _289
REMARK  117  A    between atoms: _292  and  _294
REMARK  118  A    between atoms: _294  and  _295
REMARK  119  A    between atoms: _294  and  _297
REMARK  120  A    between atoms: _297  and  _298
REMARK  121  A    between atoms: _301  and  _303
REMARK  122  A    between atoms: _303  and  _304
REMARK  123  A    between atoms: _303  and  _306
REMARK  124  A    between atoms: _306  and  _307
REMARK  125  A    between atoms: _310  and  _312
REMARK  126  A    between atoms: _312  and  _313
REMARK  127  A    between atoms: _315  and  _317
REMARK  128  A    between atoms: _317  and  _318
REMARK  129  A    between atoms: _321  and  _323
REMARK  130  A    between atoms: _323  and  _324
REMARK  131  A    between atoms: _323  and  _326
REMARK  132  A    between atoms: _326  and  _327
REMARK  133  A    between atoms: _330  and  _332
REMARK  134  A    between atoms: _332  and  _333
REMARK  135  A    between atoms: _332  and  _335
REMARK  136  A    between atoms: _335  and  _336
REMARK  137  A    between atoms: _339  and  _341
REMARK  138  A    between atoms: _341  and  _342
REMARK  139  A    between atoms: _341  and  _344
REMARK  140  A    between atoms: _344  and  _345
REMARK  141  A    between atoms: _348  and  _350
REMARK  142  A    between atoms: _350  and  _351
REMARK  143  A    between atoms: _350  and  _353
REMARK  144  A    between atoms: _356  and  _358
REMARK  145  A    between atoms: _358  and  _359
REMARK  146  A    between atoms: _358  and  _361
REMARK  147  A    between atoms: _361  and  _362
REMARK  148  A    between atoms: _362  and  _363
REMARK  149  A    between atoms: _363  and  _364
REMARK  150  A    between atoms: _364  and  _365
REMARK  151  A    between atoms: _369  and  _371
REMARK  152  A    between atoms: _371  and  _372
REMARK  153  A    between atoms: _371  and  _374
REMARK  154  A    between atoms: _374  and  _375
REMARK  155  A    between atoms: _375  and  _376
REMARK  156  A    between atoms: _378  and  _380
REMARK  157  A    between atoms: _380  and  _381
REMARK  158  A    between atoms: _380  and  _383
REMARK  159  A    between atoms: _383  and  _384
REMARK  160  A    between atoms: _387  and  _389
REMARK  161  A    between atoms: _389  and  _390
REMARK  162  A    between atoms: _392  and  _394
REMARK  163  A    between atoms: _394  and  _395
REMARK  164  A    between atoms: _397  and  _399
REMARK  165  A    between atoms: _399  and  _400
REMARK  166  A    between atoms: _399  and  _402
REMARK  167  A    between atoms: _402  and  _403
REMARK  168  A    between atoms: _406  and  _408
REMARK  169  A    between atoms: _408  and  _409
REMARK  170  A    between atoms: _411  and  _413
REMARK  171  A    between atoms: _413  and  _414
REMARK  172  A    between atoms: _416  and  _418
REMARK  173  A    between atoms: _418  and  _419
REMARK  174  A    between atoms: _418  and  _421
REMARK  175  A    between atoms: _421  and  _422
REMARK  176  A    between atoms: _425  and  _427
REMARK  177  A    between atoms: _427  and  _428
REMARK  178  A    between atoms: _427  and  _430
REMARK  179  A    between atoms: _430  and  _431
REMARK  180  A    between atoms: _435  and  _436
REMARK  181  A    between atoms: _441  and  _443
REMARK  182  A    between atoms: _443  and  _444
REMARK  183  A    between atoms: _443  and  _446
REMARK  184  A    between atoms: _449  and  _451
REMARK  185  A    between atoms: _451  and  _452
REMARK  186  A    between atoms: _451  and  _454
REMARK  187  A    between atoms: _454  and  _455
REMARK  188  A    between atoms: _460  and  _462
REMARK  189  A    between atoms: _462  and  _463
REMARK  190  A    between atoms: _462  and  _465
REMARK  191  A    between atoms: _465  and  _466
REMARK  192  A    between atoms: _469  and  _471
REMARK  193  A    between atoms: _471  and  _472
REMARK  194  A    between atoms: _471  and  _474
REMARK  195  A    between atoms: _474  and  _475
REMARK  196  A    between atoms: _478  and  _480
REMARK  197  A    between atoms: _480  and  _481
REMARK  198  A    between atoms: _483  and  _485
REMARK  199  A    between atoms: _485  and  _486
REMARK  200  A    between atoms: _485  and  _488
REMARK  201  A    between atoms: _488  and  _489
REMARK  202  A    between atoms: _489  and  _490
REMARK  203  A    between atoms: _490  and  _491
REMARK                            x       y       z     vdW  Elec       q    Type
REMARK                         _______ _______ _______ _____ _____    ______ ____
ROOT
ATOM      1  C   GLY A   5      -9.631  21.949  24.813  0.00  0.00    +0.243 C 
ATOM      2  O   GLY A   5      -8.478  21.526  24.713  0.00  0.00    -0.273 OA
ATOM      3  N   ALA A   6     -10.554  21.556  23.936  0.00  0.00    -0.297 N 
ATOM      4  H   ALA A   6     -11.513  21.954  23.989  0.00  0.00    +0.150 HD
ENDROOT
BRANCH   3   5
ATOM      5  CA  ALA A   6     -10.240  20.580  22.906  0.00  0.00    +0.149 C 
ATOM      6  CB  ALA A   6     -11.349  19.574  22.857  0.00  0.00    +0.031 C 
BRANCH   5   7
ATOM      7  C   ALA A   6     -10.110  21.297  21.580  0.00  0.00    +0.241 C 
ATOM      8  O   ALA A   6     -11.003  22.059  21.245  0.00  0.00    -0.273 OA
ATOM      9  N   ASP A   7      -9.076  21.121  20.775  0.00  0.00    -0.297 N 
ATOM     10  H   ASP A   7      -8.312  20.476  21.062  0.00  0.00    +0.150 HD
BRANCH   9  11
ATOM     11  CA  ASP A   7      -8.984  21.814  19.489  0.00  0.00    +0.160 C 
BRANCH  11  12
ATOM     12  C   ASP A   7      -9.865  21.219  18.401  0.00  0.00    +0.241 C 
ATOM     13  N   ASP A   8     -10.183  19.946  18.633  0.00  0.00    -0.297 N 
ATOM     14  H   ASP A   8      -9.826  19.524  19.514  0.00  0.00    +0.150 HD
ATOM     15  O   ASP A   7     -10.239  21.915  17.444  0.00  0.00    -0.273 OA
BRANCH  13  16
ATOM     16  CA  ASP A   8     -10.984  19.091  17.768  0.00  0.00    +0.160 C 
BRANCH  16  17
ATOM     17  C   ASP A   8     -12.225  18.527  18.445  0.00  0.00    +0.241 C 
ATOM     18  O   ASP A   8     -12.271  18.457  19.679  0.00  0.00    -0.273 OA
ATOM     19  N   THR A   9     -13.160  18.116  17.591  0.00  0.00    -0.295 N 
ATOM     20  H   THR A   9     -12.965  18.232  16.576  0.00  0.00    +0.150 HD
BRANCH  19  21
ATOM     21  CA  THR A   9     -14.435  17.516  17.964  0.00  0.00    +0.176 C 
BRANCH  21  22
ATOM     22  C   THR A   9     -14.233  15.988  17.788  0.00  0.00    +0.243 C 
ATOM     23  N   VAL A  10     -14.606  15.205  18.800  0.00  0.00    -0.298 N 
ATOM     24  H   VAL A  10     -15.023  15.651  19.642  0.00  0.00    +0.150 HD
ATOM     25  O   THR A   9     -13.753  15.521  16.730  0.00  0.00    -0.273 OA
BRANCH  23  26
ATOM     26  CA  VAL A  10     -14.457  13.737  18.785  0.00  0.00    +0.137 C 
BRANCH  26  27
ATOM     27  CB  VAL A  10     -13.050  13.365  19.467  0.00  0.00    +0.026 C 
ATOM     28  CG2 VAL A  10     -12.852  14.166  20.680  0.00  0.00    +0.002 C 
ATOM     29  CG1 VAL A  10     -12.967  11.882  19.851  0.00  0.00    +0.002 C 
ENDBRANCH  26  27
BRANCH  26  30
ATOM     30  C   VAL A  10     -15.660  13.008  19.429  0.00  0.00    +0.227 C 
ATOM     31  O   VAL A  10     -15.967  13.125  20.621  0.00  0.00    -0.286 OA
ENDBRANCH  26  30
ENDBRANCH  23  26
ENDBRANCH  21  22
BRANCH  21  32
ATOM     32  CB  THR A   9     -15.516  18.095  17.023  0.00  0.00    +0.137 C 
ATOM     33  CG2 THR A   9     -16.774  17.335  17.222  0.00  0.00    +0.034 C 
BRANCH  32  34
ATOM     34  OG1 THR A   9     -15.663  19.504  17.242  0.00  0.00    -0.382 OA
ATOM     35  HG1 THR A   9     -14.801  19.956  17.062  0.00  0.00    +0.210 HD
ENDBRANCH  32  34
ENDBRANCH  21  32
ENDBRANCH  19  21
ENDBRANCH  16  17
BRANCH  16  36
ATOM     36  CB  ASP A   8     -10.183  17.904  17.328  0.00  0.00    +0.143 C 
BRANCH  36  37
ATOM     37  CG  ASP A   8      -8.768  18.169  16.877  0.00  0.00    +0.367 C 
ATOM     38  OD2 ASP A   8      -7.851  17.456  17.345  0.00  0.00    -0.246 OA
ATOM     39  OD1 ASP A   8      -8.568  19.074  16.045  0.00  0.00    -0.246 OA
ENDBRANCH  36  37
ENDBRANCH  16  36
ENDBRANCH  13  16
ENDBRANCH  11  12
BRANCH  11  40
ATOM     40  CB  ASP A   7      -7.581  21.791  18.937  0.00  0.00    +0.143 C 
BRANCH  40  41
ATOM     41  CG  ASP A   7      -6.499  21.976  19.988  0.00  0.00    +0.367 C 
ATOM     42  OD2 ASP A   7      -6.680  22.797  20.919  0.00  0.00    -0.246 OA
ATOM     43  OD1 ASP A   7      -5.452  21.284  19.869  0.00  0.00    -0.246 OA
ENDBRANCH  40  41
ENDBRANCH  11  40
ENDBRANCH   9  11
ENDBRANCH   5   7
ENDBRANCH   3   5
BRANCH   1  44
ATOM     44  CA  GLY A   5      -9.966  22.900  25.936  0.00  0.00    +0.176 C 
BRANCH  44  46
ATOM     45  C   THR A   4     -11.616  24.451  25.061  0.00  0.00    +0.243 C 
ATOM     46  N   GLY A   5     -11.307  23.469  25.888  0.00  0.00    -0.295 N 
ATOM     47  H   GLY A   5     -12.040  23.092  26.522  0.00  0.00    +0.150 HD
ATOM     48  O   THR A   4     -10.828  24.939  24.254  0.00  0.00    -0.273 OA
BRANCH  45  49
ATOM     49  CA  THR A   4     -13.057  24.899  25.153  0.00  0.00    +0.176 C 
BRANCH  49  51
ATOM     50  C   ASP A   3     -14.258  22.779  24.923  0.00  0.00    +0.241 C 
ATOM     51  N   THR A   4     -13.969  23.835  25.653  0.00  0.00    -0.295 N 
ATOM     52  H   THR A   4     -14.387  23.928  26.601  0.00  0.00    +0.150 HD
ATOM     53  O   ASP A   3     -13.627  22.573  23.882  0.00  0.00    -0.273 OA
BRANCH  50  54
ATOM     54  CA  ASP A   3     -15.186  21.709  25.469  0.00  0.00    +0.160 C 
BRANCH  54  57
ATOM     55  C   LEU A   2     -17.610  21.925  25.784  0.00  0.00    +0.241 C 
ATOM     56  O   LEU A   2     -17.538  22.286  26.965  0.00  0.00    -0.273 OA
ATOM     57  N   ASP A   3     -16.547  21.658  25.037  0.00  0.00    -0.297 N 
ATOM     58  H   ASP A   3     -16.720  21.387  24.048  0.00  0.00    +0.150 HD
BRANCH  55  59
ATOM     59  CA  LEU A   2     -18.963  21.762  25.063  0.00  0.00    +0.149 C 
BRANCH  59  61
ATOM     60  C   LEU A   1     -19.205  19.389  25.240  0.00  0.00    +0.238 C 
ATOM     61  N   LEU A   2     -19.438  20.571  25.716  0.00  0.00    -0.297 N 
ATOM     62  H   LEU A   2     -19.985  20.662  26.596  0.00  0.00    +0.150 HD
ATOM     63  O   LEU A   1     -18.473  19.216  24.262  0.00  0.00    -0.274 OA
BRANCH  60  64
ATOM     64  CA  LEU A   1     -19.720  18.240  26.053  0.00  0.00    +0.145 C 
BRANCH  64  65
ATOM     65  N   LEU A   1     -20.383  17.260  25.203  0.00  0.00    -0.238 NA
ATOM     66  H   LEU A   1     -19.856  16.395  24.965  0.00  0.00    +0.142 HD
ENDBRANCH  64  65
BRANCH  64  67
ATOM     67  CB  LEU A   1     -18.412  17.852  26.678  0.00  0.00    +0.026 C 
BRANCH  67  68
ATOM     68  CG  LEU A   1     -18.110  17.263  27.996  0.00  0.00    +0.002 C 
ATOM     69  CD2 LEU A   1     -18.448  18.203  29.099  0.00  0.00    +0.000 C 
ATOM     70  CD1 LEU A   1     -16.630  16.919  27.957  0.00  0.00    +0.000 C 
ENDBRANCH  67  68
ENDBRANCH  64  67
ENDBRANCH  60  64
ENDBRANCH  59  61
BRANCH  59  71
ATOM     71  CB  LEU A   2     -19.931  22.831  25.383  0.00  0.00    +0.029 C 
BRANCH  71  72
ATOM     72  CG  LEU A   2     -20.705  23.337  24.214  0.00  0.00    +0.002 C 
ATOM     73  CD2 LEU A   2     -21.822  24.157  24.824  0.00  0.00    +0.000 C 
ATOM     74  CD1 LEU A   2     -21.161  22.213  23.278  0.00  0.00    +0.000 C 
ENDBRANCH  71  72
ENDBRANCH  59  71
ENDBRANCH  55  59
ENDBRANCH  54  57
BRANCH  54  75
ATOM     75  CB  ASP A   3     -14.617  20.360  25.157  0.00  0.00    +0.143 C 
BRANCH  75  76
ATOM     76  CG  ASP A   3     -13.598  19.922  26.142  0.00  0.00    +0.367 C 
ATOM     77  OD2 ASP A   3     -12.764  20.715  26.617  0.00  0.00    -0.246 OA
ATOM     78  OD1 ASP A   3     -13.674  18.752  26.481  0.00  0.00    -0.246 OA
ENDBRANCH  75  76
ENDBRANCH  54  75
ENDBRANCH  50  54
ENDBRANCH  49  51
BRANCH  49  79
ATOM     79  CB  THR A   4     -13.158  26.063  26.083  0.00  0.00    +0.137 C 
ATOM     80  CG2 THR A   4     -14.463  26.853  25.846  0.00  0.00    +0.034 C 
BRANCH  79  81
ATOM     81  OG1 THR A   4     -13.174  25.538  27.422  0.00  0.00    -0.382 OA
ATOM     82  HG1 THR A   4     -13.953  24.937  27.530  0.00  0.00    +0.210 HD
ENDBRANCH  79  81
ENDBRANCH  49  79
ENDBRANCH  45  49
ENDBRANCH  44  46
ENDBRANCH   1  44
TORSDOF 35
REMARK  Name = ../refined-set-2016/1hbv/1hbv_pocket.pdb
REMARK  203 active torsions:
REMARK  status: ('A' for Active; 'I' for Inactive)
REMARK    1  A    between atoms: _1  and  _3
REMARK    2  A    between atoms: _3  and  _4
REMARK    3  A    between atoms: _3  and  _6
REMARK    4  A    between atoms: _6  and  _7
REMARK    5  A    between atoms: _7  and  _8
REMARK    6  A    between atoms: _8  and  _9
REMARK    7  A    between atoms: _18  and  _20
REMARK    8  A    between atoms: _20  and  _21
REMARK    9  A    between atoms: _20  and  _23
REMARK   10  A    between atoms: _23  and  _24
REMARK   11  A    between atoms: _27  and  _29
REMARK   12  A    between atoms: _29  and  _30
REMARK   13  A    between atoms: _29  and  _32
REMARK   14  A    between atoms: _32  and  _33
REMARK   15  A    between atoms: _36  and  _38
REMARK   16  A    between atoms: _38  and  _39
REMARK   17  A    between atoms: _38  and  _41
REMARK   18  A    between atoms: _41  and  _42
REMARK   19  A    between atoms: _45  and  _47
REMARK   20  A    between atoms: _47  and  _48
REMARK   21  A    between atoms: _50  and  _52
REMARK   22  A    between atoms: _52  and  _53
REMARK   23  A    between atoms: _56  and  _58
REMARK   24  A    between atoms: _58  and  _59
REMARK   25  A    between atoms: _58  and  _61
REMARK   26  A    between atoms: _61  and  _62
REMARK   27  A    between atoms: _65  and  _67
REMARK   28  A    between atoms: _67  and  _68
REMARK   29  A    between atoms: _67  and  _70
REMARK   30  A    between atoms: _70  and  _71
REMARK   31  A    between atoms: _74  and  _76
REMARK   32  A    between atoms: _76  and  _77
REMARK   33  A    between atoms: _76  and  _79
REMARK   34  A    between atoms: _79  and  _80
REMARK   35  A    between atoms: _83  and  _85
REMARK   36  A    between atoms: _85  and  _86
REMARK   37  A    between atoms: _85  and  _88
REMARK   38  A    between atoms: _91  and  _93
REMARK   39  A    between atoms: _93  and  _94
REMARK   40  A    between atoms: _93  and  _96
REMARK   41  A    between atoms: _96  and  _97
REMARK   42  A    between atoms: _97  and  _98
REMARK   43  A    between atoms: _100  and  _102
REMARK   44  A    between atoms: _102  and  _103
REMARK   45  A    between atoms: _102  and  _105
REMARK   46  A    between atoms: _105  and  _106
REMARK   47  A    between atoms: _109  and  _111
REMARK   48  A    between atoms: _111  and  _112
REMARK   49  A    between atoms: _114  and  _116
REMARK   50  A    between atoms: _116  and  _117
REMARK   51  A    between atoms: _119  and  _121
REMARK   52  A    between atoms: _121  and  _122
REMARK   53  A    between atoms: _121  and  _124
REMARK   54  A    between atoms: _124  and  _125
REMARK   55  A    between atoms: _128  and  _130
REMARK   56  A    between atoms: _130  and  _131
REMARK   57  A    between atoms: _133  and  _135
REMARK   58  A    between atoms: _135  and  _136
REMARK   59  A    between atoms: _138  and  _140
REMARK   60  A    between atoms: _140  and  _141
REMARK   61  A    between atoms: _140  and  _143
REMARK   62  A    between atoms: _143  and  _144
REMARK   63  A    between atoms: _147  and  _149
REMARK   64  A    between atoms: _149  and  _150
REMARK   65  A    between atoms: _149  and  _152
REMARK   66  A    between atoms: _155  and  _157
REMARK   67  A    between atoms: _157  and  _158
REMARK   68  A    between atoms: _157  and  _160
REMARK   69  A    between atoms: _160  and  _161
REMARK   70  A    between atoms: _165  and  _166
REMARK   71  A    between atoms: _171  and  _173
REMARK   72  A    between atoms: _173  and  _174
REMARK   73  A    between atoms: _173  and  _176
REMARK   74  A    between atoms: _176  and  _177
REMARK   75  A    between atoms: _181  and  _182
REMARK   76  A    between atoms: _187  and  _189
REMARK   77  A    between atoms: _189  and  _190
REMARK   78  A    between atoms: _189  and  _192
REMARK   79  A    between atoms: _195  and  _197
REMARK   80  A    between atoms: _197  and  _198
REMARK   81  A    between atoms: _197  and  _200
REMARK   82  A    between atoms: _200  and  _201
REMARK   83  A    between atoms: _206  and  _208
REMARK   84  A    between atoms: _208  and  _209
REMARK   85  A    between atoms: _208  and  _211
REMARK   86  A    between atoms: _211  and  _212
REMARK   87  A    between atoms: _215  and  _217
REMARK   88  A    between atoms: _217  and  _218
REMARK   89  A    between atoms: _217  and  _220
REMARK   90  A    between atoms: _220  and  _221
REMARK   91  A    between atoms: _224  and  _226
REMARK   92  A    between atoms: _226  and  _227
REMARK   93  A    between atoms: _229  and  _231
REMARK   94  A    between atoms: _231  and  _232
REMARK   95  A    between atoms: _231  and  _234
REMARK   96  A    between atoms: _234  and  _235
REMARK   97  A    between atoms: _235  and  _236
REMARK   98  A    between atoms: _236  and  _237
REMARK   99  A    between atoms: _246  and  _248
REMARK  100  A    between atoms: _248  and  _249
REMARK  101  A    between atoms: _248  and  _251
REMARK  102  A    between atoms: _251  and  _252
REMARK  103  A    between atoms: _257  and  _259
REMARK  104  A    between atoms: _259  and  _260
REMARK  105  A    between atoms: _259  and  _262
REMARK  106  A    between atoms: _262  and  _263
REMARK  107  A    between atoms: _263  and  _264
REMARK  108  A    between atoms: _264  and  _265
REMARK  109  A    between atoms: _274  and  _276
REMARK  110  A    between atoms: _276  and  _277
REMARK  111  A    between atoms: _276  and  _279
REMARK  112  A    between atoms: _279  and  _280
REMARK  113  A    between atoms: _283  and  _285
REMARK  114  A    between atoms: _285  and  _286
REMARK  115  A    between atoms: _285  and  _288
REMARK  116  A    between atoms: _288  and  _289
REMARK  117  A    between atoms: _292  and  _294
REMARK  118  A    between atoms: _294  and  _295
REMARK  119  A    between atoms: _294  and  _297
REMARK  120  A    between atoms: _297  and  _298
REMARK  121  A    between atoms: _301  and  _303
REMARK  122  A    between atoms: _303  and  _304
REMARK  123  A    between atoms: _303  and  _306
REMARK  124  A    between atoms: _306  and  _307
REMARK  125  A    between atoms: _310  and  _312
REMARK  126  A    between atoms: _312  and  _313
REMARK  127  A    between atoms: _315  and  _317
REMARK  128  A    between atoms: _317  and  _318
REMARK  129  A    between atoms: _321  and  _323
REMARK  130  A    between atoms: _323  and  _324
REMARK  131  A    between atoms: _323  and  _326
REMARK  132  A    between atoms: _326  and  _327
REMARK  133  A    between atoms: _330  and  _332
REMARK  134  A    between atoms: _332  and  _333
REMARK  135  A    between atoms: _332  and  _335
REMARK  136  A    between atoms: _335  and  _336
REMARK  137  A    between atoms: _339  and  _341
REMARK  138  A    between atoms: _341  and  _342
REMARK  139  A    between atoms: _341  and  _344
REMARK  140  A    between atoms: _344  and  _345
REMARK  141  A    between atoms: _348  and  _350
REMARK  142  A    between atoms: _350  and  _351
REMARK  143  A    between atoms: _350  and  _353
REMARK  144  A    between atoms: _356  and  _358
REMARK  145  A    between atoms: _358  and  _359
REMARK  146  A    between atoms: _358  and  _361
REMARK  147  A    between atoms: _361  and  _362
REMARK  148  A    between atoms: _362  and  _363
REMARK  149  A    between atoms: _363  and  _364
REMARK  150  A    between atoms: _364  and  _365
REMARK  151  A    between atoms: _369  and  _371
REMARK  152  A    between atoms: _371  and  _372
REMARK  153  A    between atoms: _371  and  _374
REMARK  154  A    between atoms: _374  and  _375
REMARK  155  A    between atoms: _375  and  _376
REMARK  156  A    between atoms: _378  and  _380
REMARK  157  A    between atoms: _380  and  _381
REMARK  158  A    between atoms: _380  and  _383
REMARK  159  A    between atoms: _383  and  _384
REMARK  160  A    between atoms: _387  and  _389
REMARK  161  A    between atoms: _389  and  _390
REMARK  162  A    between atoms: _392  and  _394
REMARK  163  A    between atoms: _394  and  _395
REMARK  164  A    between atoms: _397  and  _399
REMARK  165  A    between atoms: _399  and  _400
REMARK  166  A    between atoms: _399  and  _402
REMARK  167  A    between atoms: _402  and  _403
REMARK  168  A    between atoms: _406  and  _408
REMARK  169  A    between atoms: _408  and  _409
REMARK  170  A    between atoms: _411  and  _413
REMARK  171  A    between atoms: _413  and  _414
REMARK  172  A    between atoms: _416  and  _418
REMARK  173  A    between atoms: _418  and  _419
REMARK  174  A    between atoms: _418  and  _421
REMARK  175  A    between atoms: _421  and  _422
REMARK  176  A    between atoms: _425  and  _427
REMARK  177  A    between atoms: _427  and  _428
REMARK  178  A    between atoms: _427  and  _430
REMARK  179  A    between atoms: _430  and  _431
REMARK  180  A    between atoms: _435  and  _436
REMARK  181  A    between atoms: _441  and  _443
REMARK  182  A    between atoms: _443  and  _444
REMARK  183  A    between atoms: _443  and  _446
REMARK  184  A    between atoms: _449  and  _451
REMARK  185  A    between atoms: _451  and  _452
REMARK  186  A    between atoms: _451  and  _454
REMARK  187  A    between atoms: _454  and  _455
REMARK  188  A    between atoms: _460  and  _462
REMARK  189  A    between atoms: _462  and  _463
REMARK  190  A    between atoms: _462  and  _465
REMARK  191  A    between atoms: _465  and  _466
REMARK  192  A    between atoms: _469  and  _471
REMARK  193  A    between atoms: _471  and  _472
REMARK  194  A    between atoms: _471  and  _474
REMARK  195  A    between atoms: _474  and  _475
REMARK  196  A    between atoms: _478  and  _480
REMARK  197  A    between atoms: _480  and  _481
REMARK  198  A    between atoms: _483  and  _485
REMARK  199  A    between atoms: _485  and  _486
REMARK  200  A    between atoms: _485  and  _488
REMARK  201  A    between atoms: _488  and  _489
REMARK  202  A    between atoms: _489  and  _490
REMARK  203  A    between atoms: _490  and  _491
REMARK                            x       y       z     vdW  Elec       q    Type
REMARK                         _______ _______ _______ _____ _____    ______ ____
ROOT
ATOM      1  C   ILE A   3      -4.483  11.901  20.043  0.00  0.00    +0.241 C 
ATOM      2  N   GLY A   4      -4.181  12.949  20.784  0.00  0.00    -0.295 N 
ATOM      3  H   GLY A   4      -4.238  13.897  20.359  0.00  0.00    +0.150 HD
ATOM      4  O   ILE A   3      -4.359  10.740  20.431  0.00  0.00    -0.273 OA
ENDROOT
BRANCH   1   5
ATOM      5  CA  ILE A   3      -4.984  12.222  18.637  0.00  0.00    +0.149 C 
BRANCH   5   7
ATOM      6  C   MET A   2      -4.367  10.876  16.688  0.00  0.00    +0.241 C 
ATOM      7  N   ILE A   3      -5.052  11.016  17.819  0.00  0.00    -0.297 N 
ATOM      8  H   ILE A   3      -5.661  10.234  18.133  0.00  0.00    +0.150 HD
ATOM      9  O   MET A   2      -3.671  11.789  16.221  0.00  0.00    -0.273 OA
BRANCH   6  10
ATOM     10  CA  MET A   2      -4.528   9.556  15.925  0.00  0.00    +0.149 C 
BRANCH  10  12
ATOM     11  C   LYS A   1      -5.506   9.311  13.749  0.00  0.00    +0.238 C 
ATOM     12  N   MET A   2      -4.687   9.929  14.544  0.00  0.00    -0.297 N 
ATOM     13  H   MET A   2      -4.126  10.721  14.170  0.00  0.00    +0.150 HD
ATOM     14  O   LYS A   1      -6.188   8.361  14.113  0.00  0.00    -0.274 OA
BRANCH  11  15
ATOM     15  CA  LYS A   1      -5.573   9.829  12.334  0.00  0.00    +0.145 C 
BRANCH  15  16
ATOM     16  N   LYS A   1      -6.290   8.744  11.683  0.00  0.00    -0.238 NA
ATOM     17  H   LYS A   1      -6.937   8.160  12.251  0.00  0.00    +0.142 HD
ENDBRANCH  15  16
BRANCH  15  18
ATOM     18  CB  LYS A   1      -6.374  11.170  12.272  0.00  0.00    +0.026 C 
BRANCH  18  19
ATOM     19  CG  LYS A   1      -5.654  12.370  12.872  0.00  0.00    -0.000 C 
BRANCH  19  20
ATOM     20  CD  LYS A   1      -6.322  13.768  12.939  0.00  0.00    -0.024 C 
BRANCH  20  21
ATOM     21  CE  LYS A   1      -5.329  14.843  13.513  0.00  0.00    -0.086 C 
BRANCH  21  22
ATOM     22  NZ  LYS A   1      -5.594  16.275  13.124  0.00  0.00    +0.380 N 
ATOM     23  HZ1 LYS A   1      -4.877  16.890  13.560  0.00  0.00    -0.089 HD
ATOM     24  HZ2 LYS A   1      -6.540  16.554  13.455  0.00  0.00    -0.089 HD
ATOM     25  HZ3 LYS A   1      -5.547  16.366  12.089  0.00  0.00    -0.089 HD
ENDBRANCH  21  22
ENDBRANCH  20  21
ENDBRANCH  19  20
ENDBRANCH  18  19
ENDBRANCH  15  18
ENDBRANCH  11  15
ENDBRANCH  10  12
BRANCH  10  26
ATOM     26  CB  MET A   2      -3.310   8.658  16.002  0.00  0.00    +0.041 C 
BRANCH  26  27
ATOM     27  CG  MET A   2      -2.938   8.283  17.406  0.00  0.00    +0.060 C 
BRANCH  27  28
ATOM     28  SD  MET A   2      -2.104   6.711  17.305  0.00  0.00    -0.139 S 
ATOM     29  CE  MET A   2      -0.479   7.378  16.958  0.00  0.00    +0.069 C 
ENDBRANCH  27  28
ENDBRANCH  26  27
ENDBRANCH  10  26
ENDBRANCH   6  10
ENDBRANCH   5   7
BRANCH   5  30
ATOM     30  CB  ILE A   3      -6.387  12.934  18.715  0.00  0.00    +0.027 C 
ATOM     31  CG2 ILE A   3      -6.808  13.169  17.284  0.00  0.00    +0.002 C 
BRANCH  30  32
ATOM     32  CG1 ILE A   3      -7.522  12.135  19.306  0.00  0.00    +0.002 C 
ATOM     33  CD1 ILE A   3      -8.728  13.051  19.454  0.00  0.00    +0.000 C 
ENDBRANCH  30  32
ENDBRANCH   5  30
ENDBRANCH   1   5
BRANCH   2  34
ATOM     34  CA  GLY A   4      -3.769  12.826  22.182  0.00  0.00    +0.176 C 
BRANCH  34  35
ATOM     35  C   GLY A   4      -4.665  13.593  23.161  0.00  0.00    +0.243 C 
ATOM     36  N   GLY A   5      -4.657  13.056  24.359  0.00  0.00    -0.295 N 
ATOM     37  H   GLY A   5      -4.094  12.194  24.504  0.00  0.00    +0.150 HD
ATOM     38  O   GLY A   4      -5.322  14.603  22.828  0.00  0.00    -0.273 OA
BRANCH  36  39
ATOM     39  CA  GLY A   5      -5.384  13.592  25.489  0.00  0.00    +0.176 C 
BRANCH  39  40
ATOM     40  C   GLY A   5      -4.522  13.245  26.683  0.00  0.00    +0.243 C 
ATOM     41  N   ILE A   6      -5.005  13.370  27.915  0.00  0.00    -0.297 N 
ATOM     42  H   ILE A   6      -5.954  13.760  28.084  0.00  0.00    +0.150 HD
ATOM     43  O   GLY A   5      -3.373  12.824  26.478  0.00  0.00    -0.273 OA
BRANCH  41  44
ATOM     44  CA  ILE A   6      -4.157  12.941  29.021  0.00  0.00    +0.149 C 
BRANCH  44  45
ATOM     45  C   ILE A   6      -4.297  11.413  29.065  0.00  0.00    +0.241 C 
ATOM     46  N   GLY A   7      -3.306  10.724  29.601  0.00  0.00    -0.295 N 
ATOM     47  H   GLY A   7      -2.495  11.208  30.036  0.00  0.00    +0.150 HD
ATOM     48  O   ILE A   6      -5.290  10.857  28.548  0.00  0.00    -0.273 OA
BRANCH  46  49
ATOM     49  CA  GLY A   7      -3.375   9.297  29.569  0.00  0.00    +0.176 C 
BRANCH  49  50
ATOM     50  C   GLY A   7      -2.878   8.838  28.208  0.00  0.00    +0.243 C 
ATOM     51  O   GLY A   7      -2.517   7.669  28.130  0.00  0.00    -0.273 OA
ATOM     52  N   GLY A   8      -2.871   9.638  27.119  0.00  0.00    -0.296 N 
ATOM     53  H   GLY A   8      -3.304  10.581  27.187  0.00  0.00    +0.150 HD
BRANCH  52  54
ATOM     54  CA  GLY A   8      -2.277   9.225  25.848  0.00  0.00    +0.163 C 
BRANCH  54  55
ATOM     55  C   GLY A   8      -3.071   9.427  24.576  0.00  0.00    +0.229 C 
ATOM     56  O   GLY A   8      -3.924  10.318  24.483  0.00  0.00    -0.286 OA
ENDBRANCH  54  55
ENDBRANCH  52  54
ENDBRANCH  49  50
ENDBRANCH  46  49
ENDBRANCH  44  45
BRANCH  44  57
ATOM     57  CB  ILE A   6      -4.584  13.575  30.386  0.00  0.00    +0.027 C 
ATOM     58  CG2 ILE A   6      -4.486  15.096  30.267  0.00  0.00    +0.002 C 
BRANCH  57  59
ATOM     59  CG1 ILE A   6      -5.967  13.102  30.797  0.00  0.00    +0.002 C 
ATOM     60  CD1 ILE A   6      -5.896  12.178  32.012  0.00  0.00    +0.000 C 
ENDBRANCH  57  59
ENDBRANCH  44  57
ENDBRANCH  41  44
ENDBRANCH  39  40
ENDBRANCH  36  39
ENDBRANCH  34  35
ENDBRANCH   2  34
TORSDOF 28
REMARK  Name = ../refined-set-2016/1hbv/1hbv_pocket.pdb
REMARK  203 active torsions:
REMARK  status: ('A' for Active; 'I' for Inactive)
REMARK    1  A    between atoms: _1  and  _3
REMARK    2  A    between atoms: _3  and  _4
REMARK    3  A    between atoms: _3  and  _6
REMARK    4  A    between atoms: _6  and  _7
REMARK    5  A    between atoms: _7  and  _8
REMARK    6  A    between atoms: _8  and  _9
REMARK    7  A    between atoms: _18  and  _20
REMARK    8  A    between atoms: _20  and  _21
REMARK    9  A    between atoms: _20  and  _23
REMARK   10  A    between atoms: _23  and  _24
REMARK   11  A    between atoms: _27  and  _29
REMARK   12  A    between atoms: _29  and  _30
REMARK   13  A    between atoms: _29  and  _32
REMARK   14  A    between atoms: _32  and  _33
REMARK   15  A    between atoms: _36  and  _38
REMARK   16  A    between atoms: _38  and  _39
REMARK   17  A    between atoms: _38  and  _41
REMARK   18  A    between atoms: _41  and  _42
REMARK   19  A    between atoms: _45  and  _47
REMARK   20  A    between atoms: _47  and  _48
REMARK   21  A    between atoms: _50  and  _52
REMARK   22  A    between atoms: _52  and  _53
REMARK   23  A    between atoms: _56  and  _58
REMARK   24  A    between atoms: _58  and  _59
REMARK   25  A    between atoms: _58  and  _61
REMARK   26  A    between atoms: _61  and  _62
REMARK   27  A    between atoms: _65  and  _67
REMARK   28  A    between atoms: _67  and  _68
REMARK   29  A    between atoms: _67  and  _70
REMARK   30  A    between atoms: _70  and  _71
REMARK   31  A    between atoms: _74  and  _76
REMARK   32  A    between atoms: _76  and  _77
REMARK   33  A    between atoms: _76  and  _79
REMARK   34  A    between atoms: _79  and  _80
REMARK   35  A    between atoms: _83  and  _85
REMARK   36  A    between atoms: _85  and  _86
REMARK   37  A    between atoms: _85  and  _88
REMARK   38  A    between atoms: _91  and  _93
REMARK   39  A    between atoms: _93  and  _94
REMARK   40  A    between atoms: _93  and  _96
REMARK   41  A    between atoms: _96  and  _97
REMARK   42  A    between atoms: _97  and  _98
REMARK   43  A    between atoms: _100  and  _102
REMARK   44  A    between atoms: _102  and  _103
REMARK   45  A    between atoms: _102  and  _105
REMARK   46  A    between atoms: _105  and  _106
REMARK   47  A    between atoms: _109  and  _111
REMARK   48  A    between atoms: _111  and  _112
REMARK   49  A    between atoms: _114  and  _116
REMARK   50  A    between atoms: _116  and  _117
REMARK   51  A    between atoms: _119  and  _121
REMARK   52  A    between atoms: _121  and  _122
REMARK   53  A    between atoms: _121  and  _124
REMARK   54  A    between atoms: _124  and  _125
REMARK   55  A    between atoms: _128  and  _130
REMARK   56  A    between atoms: _130  and  _131
REMARK   57  A    between atoms: _133  and  _135
REMARK   58  A    between atoms: _135  and  _136
REMARK   59  A    between atoms: _138  and  _140
REMARK   60  A    between atoms: _140  and  _141
REMARK   61  A    between atoms: _140  and  _143
REMARK   62  A    between atoms: _143  and  _144
REMARK   63  A    between atoms: _147  and  _149
REMARK   64  A    between atoms: _149  and  _150
REMARK   65  A    between atoms: _149  and  _152
REMARK   66  A    between atoms: _155  and  _157
REMARK   67  A    between atoms: _157  and  _158
REMARK   68  A    between atoms: _157  and  _160
REMARK   69  A    between atoms: _160  and  _161
REMARK   70  A    between atoms: _165  and  _166
REMARK   71  A    between atoms: _171  and  _173
REMARK   72  A    between atoms: _173  and  _174
REMARK   73  A    between atoms: _173  and  _176
REMARK   74  A    between atoms: _176  and  _177
REMARK   75  A    between atoms: _181  and  _182
REMARK   76  A    between atoms: _187  and  _189
REMARK   77  A    between atoms: _189  and  _190
REMARK   78  A    between atoms: _189  and  _192
REMARK   79  A    between atoms: _195  and  _197
REMARK   80  A    between atoms: _197  and  _198
REMARK   81  A    between atoms: _197  and  _200
REMARK   82  A    between atoms: _200  and  _201
REMARK   83  A    between atoms: _206  and  _208
REMARK   84  A    between atoms: _208  and  _209
REMARK   85  A    between atoms: _208  and  _211
REMARK   86  A    between atoms: _211  and  _212
REMARK   87  A    between atoms: _215  and  _217
REMARK   88  A    between atoms: _217  and  _218
REMARK   89  A    between atoms: _217  and  _220
REMARK   90  A    between atoms: _220  and  _221
REMARK   91  A    between atoms: _224  and  _226
REMARK   92  A    between atoms: _226  and  _227
REMARK   93  A    between atoms: _229  and  _231
REMARK   94  A    between atoms: _231  and  _232
REMARK   95  A    between atoms: _231  and  _234
REMARK   96  A    between atoms: _234  and  _235
REMARK   97  A    between atoms: _235  and  _236
REMARK   98  A    between atoms: _236  and  _237
REMARK   99  A    between atoms: _246  and  _248
REMARK  100  A    between atoms: _248  and  _249
REMARK  101  A    between atoms: _248  and  _251
REMARK  102  A    between atoms: _251  and  _252
REMARK  103  A    between atoms: _257  and  _259
REMARK  104  A    between atoms: _259  and  _260
REMARK  105  A    between atoms: _259  and  _262
REMARK  106  A    between atoms: _262  and  _263
REMARK  107  A    between atoms: _263  and  _264
REMARK  108  A    between atoms: _264  and  _265
REMARK  109  A    between atoms: _274  and  _276
REMARK  110  A    between atoms: _276  and  _277
REMARK  111  A    between atoms: _276  and  _279
REMARK  112  A    between atoms: _279  and  _280
REMARK  113  A    between atoms: _283  and  _285
REMARK  114  A    between atoms: _285  and  _286
REMARK  115  A    between atoms: _285  and  _288
REMARK  116  A    between atoms: _288  and  _289
REMARK  117  A    between atoms: _292  and  _294
REMARK  118  A    between atoms: _294  and  _295
REMARK  119  A    between atoms: _294  and  _297
REMARK  120  A    between atoms: _297  and  _298
REMARK  121  A    between atoms: _301  and  _303
REMARK  122  A    between atoms: _303  and  _304
REMARK  123  A    between atoms: _303  and  _306
REMARK  124  A    between atoms: _306  and  _307
REMARK  125  A    between atoms: _310  and  _312
REMARK  126  A    between atoms: _312  and  _313
REMARK  127  A    between atoms: _315  and  _317
REMARK  128  A    between atoms: _317  and  _318
REMARK  129  A    between atoms: _321  and  _323
REMARK  130  A    between atoms: _323  and  _324
REMARK  131  A    between atoms: _323  and  _326
REMARK  132  A    between atoms: _326  and  _327
REMARK  133  A    between atoms: _330  and  _332
REMARK  134  A    between atoms: _332  and  _333
REMARK  135  A    between atoms: _332  and  _335
REMARK  136  A    between atoms: _335  and  _336
REMARK  137  A    between atoms: _339  and  _341
REMARK  138  A    between atoms: _341  and  _342
REMARK  139  A    between atoms: _341  and  _344
REMARK  140  A    between atoms: _344  and  _345
REMARK  141  A    between atoms: _348  and  _350
REMARK  142  A    between atoms: _350  and  _351
REMARK  143  A    between atoms: _350  and  _353
REMARK  144  A    between atoms: _356  and  _358
REMARK  145  A    between atoms: _358  and  _359
REMARK  146  A    between atoms: _358  and  _361
REMARK  147  A    between atoms: _361  and  _362
REMARK  148  A    between atoms: _362  and  _363
REMARK  149  A    between atoms: _363  and  _364
REMARK  150  A    between atoms: _364  and  _365
REMARK  151  A    between atoms: _369  and  _371
REMARK  152  A    between atoms: _371  and  _372
REMARK  153  A    between atoms: _371  and  _374
REMARK  154  A    between atoms: _374  and  _375
REMARK  155  A    between atoms: _375  and  _376
REMARK  156  A    between atoms: _378  and  _380
REMARK  157  A    between atoms: _380  and  _381
REMARK  158  A    between atoms: _380  and  _383
REMARK  159  A    between atoms: _383  and  _384
REMARK  160  A    between atoms: _387  and  _389
REMARK  161  A    between atoms: _389  and  _390
REMARK  162  A    between atoms: _392  and  _394
REMARK  163  A    between atoms: _394  and  _395
REMARK  164  A    between atoms: _397  and  _399
REMARK  165  A    between atoms: _399  and  _400
REMARK  166  A    between atoms: _399  and  _402
REMARK  167  A    between atoms: _402  and  _403
REMARK  168  A    between atoms: _406  and  _408
REMARK  169  A    between atoms: _408  and  _409
REMARK  170  A    between atoms: _411  and  _413
REMARK  171  A    between atoms: _413  and  _414
REMARK  172  A    between atoms: _416  and  _418
REMARK  173  A    between atoms: _418  and  _419
REMARK  174  A    between atoms: _418  and  _421
REMARK  175  A    between atoms: _421  and  _422
REMARK  176  A    between atoms: _425  and  _427
REMARK  177  A    between atoms: _427  and  _428
REMARK  178  A    between atoms: _427  and  _430
REMARK  179  A    between atoms: _430  and  _431
REMARK  180  A    between atoms: _435  and  _436
REMARK  181  A    between atoms: _441  and  _443
REMARK  182  A    between atoms: _443  and  _444
REMARK  183  A    between atoms: _443  and  _446
REMARK  184  A    between atoms: _449  and  _451
REMARK  185  A    between atoms: _451  and  _452
REMARK  186  A    between atoms: _451  and  _454
REMARK  187  A    between atoms: _454  and  _455
REMARK  188  A    between atoms: _460  and  _462
REMARK  189  A    between atoms: _462  and  _463
REMARK  190  A    between atoms: _462  and  _465
REMARK  191  A    between atoms: _465  and  _466
REMARK  192  A    between atoms: _469  and  _471
REMARK  193  A    between atoms: _471  and  _472
REMARK  194  A    between atoms: _471  and  _474
REMARK  195  A    between atoms: _474  and  _475
REMARK  196  A    between atoms: _478  and  _480
REMARK  197  A    between atoms: _480  and  _481
REMARK  198  A    between atoms: _483  and  _485
REMARK  199  A    between atoms: _485  and  _486
REMARK  200  A    between atoms: _485  and  _488
REMARK  201  A    between atoms: _488  and  _489
REMARK  202  A    between atoms: _489  and  _490
REMARK  203  A    between atoms: _490  and  _491
REMARK                            x       y       z     vdW  Elec       q    Type
REMARK                         _______ _______ _______ _____ _____    ______ ____
ROOT
ATOM      1  CA  LEU A   1     -13.315  12.514  14.566  0.00  0.00    +0.133 C 
ENDROOT
BRANCH   1   2
ATOM      2  N   LEU A   1     -14.189  13.663  14.343  0.00  0.00    -0.239 NA
ATOM      3  H   LEU A   1     -14.491  14.222  15.166  0.00  0.00    +0.142 HD
ENDBRANCH   1   2
BRANCH   1   4
ATOM      4  C   LEU A   1     -14.225  11.563  15.287  0.00  0.00    +0.224 C 
ATOM      5  O   LEU A   1     -14.843  12.023  16.242  0.00  0.00    -0.287 OA
ENDBRANCH   1   4
BRANCH   1   6
ATOM      6  CB  LEU A   1     -12.127  12.771  15.509  0.00  0.00    +0.025 C 
BRANCH   6   7
ATOM      7  CG  LEU A   1     -11.152  13.830  15.093  0.00  0.00    +0.002 C 
ATOM      8  CD2 LEU A   1     -10.036  13.856  16.101  0.00  0.00    +0.000 C 
ATOM      9  CD1 LEU A   1     -10.685  13.581  13.690  0.00  0.00    +0.000 C 
ENDBRANCH   6   7
ENDBRANCH   1   6
TORSDOF 4
REMARK  Name = ../refined-set-2016/1hbv/1hbv_pocket.pdb
REMARK  203 active torsions:
REMARK  status: ('A' for Active; 'I' for Inactive)
REMARK    1  A    between atoms: _1  and  _3
REMARK    2  A    between atoms: _3  and  _4
REMARK    3  A    between atoms: _3  and  _6
REMARK    4  A    between atoms: _6  and  _7
REMARK    5  A    between atoms: _7  and  _8
REMARK    6  A    between atoms: _8  and  _9
REMARK    7  A    between atoms: _18  and  _20
REMARK    8  A    between atoms: _20  and  _21
REMARK    9  A    between atoms: _20  and  _23
REMARK   10  A    between atoms: _23  and  _24
REMARK   11  A    between atoms: _27  and  _29
REMARK   12  A    between atoms: _29  and  _30
REMARK   13  A    between atoms: _29  and  _32
REMARK   14  A    between atoms: _32  and  _33
REMARK   15  A    between atoms: _36  and  _38
REMARK   16  A    between atoms: _38  and  _39
REMARK   17  A    between atoms: _38  and  _41
REMARK   18  A    between atoms: _41  and  _42
REMARK   19  A    between atoms: _45  and  _47
REMARK   20  A    between atoms: _47  and  _48
REMARK   21  A    between atoms: _50  and  _52
REMARK   22  A    between atoms: _52  and  _53
REMARK   23  A    between atoms: _56  and  _58
REMARK   24  A    between atoms: _58  and  _59
REMARK   25  A    between atoms: _58  and  _61
REMARK   26  A    between atoms: _61  and  _62
REMARK   27  A    between atoms: _65  and  _67
REMARK   28  A    between atoms: _67  and  _68
REMARK   29  A    between atoms: _67  and  _70
REMARK   30  A    between atoms: _70  and  _71
REMARK   31  A    between atoms: _74  and  _76
REMARK   32  A    between atoms: _76  and  _77
REMARK   33  A    between atoms: _76  and  _79
REMARK   34  A    between atoms: _79  and  _80
REMARK   35  A    between atoms: _83  and  _85
REMARK   36  A    between atoms: _85  and  _86
REMARK   37  A    between atoms: _85  and  _88
REMARK   38  A    between atoms: _91  and  _93
REMARK   39  A    between atoms: _93  and  _94
REMARK   40  A    between atoms: _93  and  _96
REMARK   41  A    between atoms: _96  and  _97
REMARK   42  A    between atoms: _97  and  _98
REMARK   43  A    between atoms: _100  and  _102
REMARK   44  A    between atoms: _102  and  _103
REMARK   45  A    between atoms: _102  and  _105
REMARK   46  A    between atoms: _105  and  _106
REMARK   47  A    between atoms: _109  and  _111
REMARK   48  A    between atoms: _111  and  _112
REMARK   49  A    between atoms: _114  and  _116
REMARK   50  A    between atoms: _116  and  _117
REMARK   51  A    between atoms: _119  and  _121
REMARK   52  A    between atoms: _121  and  _122
REMARK   53  A    between atoms: _121  and  _124
REMARK   54  A    between atoms: _124  and  _125
REMARK   55  A    between atoms: _128  and  _130
REMARK   56  A    between atoms: _130  and  _131
REMARK   57  A    between atoms: _133  and  _135
REMARK   58  A    between atoms: _135  and  _136
REMARK   59  A    between atoms: _138  and  _140
REMARK   60  A    between atoms: _140  and  _141
REMARK   61  A    between atoms: _140  and  _143
REMARK   62  A    between atoms: _143  and  _144
REMARK   63  A    between atoms: _147  and  _149
REMARK   64  A    between atoms: _149  and  _150
REMARK   65  A    between atoms: _149  and  _152
REMARK   66  A    between atoms: _155  and  _157
REMARK   67  A    between atoms: _157  and  _158
REMARK   68  A    between atoms: _157  and  _160
REMARK   69  A    between atoms: _160  and  _161
REMARK   70  A    between atoms: _165  and  _166
REMARK   71  A    between atoms: _171  and  _173
REMARK   72  A    between atoms: _173  and  _174
REMARK   73  A    between atoms: _173  and  _176
REMARK   74  A    between atoms: _176  and  _177
REMARK   75  A    between atoms: _181  and  _182
REMARK   76  A    between atoms: _187  and  _189
REMARK   77  A    between atoms: _189  and  _190
REMARK   78  A    between atoms: _189  and  _192
REMARK   79  A    between atoms: _195  and  _197
REMARK   80  A    between atoms: _197  and  _198
REMARK   81  A    between atoms: _197  and  _200
REMARK   82  A    between atoms: _200  and  _201
REMARK   83  A    between atoms: _206  and  _208
REMARK   84  A    between atoms: _208  and  _209
REMARK   85  A    between atoms: _208  and  _211
REMARK   86  A    between atoms: _211  and  _212
REMARK   87  A    between atoms: _215  and  _217
REMARK   88  A    between atoms: _217  and  _218
REMARK   89  A    between atoms: _217  and  _220
REMARK   90  A    between atoms: _220  and  _221
REMARK   91  A    between atoms: _224  and  _226
REMARK   92  A    between atoms: _226  and  _227
REMARK   93  A    between atoms: _229  and  _231
REMARK   94  A    between atoms: _231  and  _232
REMARK   95  A    between atoms: _231  and  _234
REMARK   96  A    between atoms: _234  and  _235
REMARK   97  A    between atoms: _235  and  _236
REMARK   98  A    between atoms: _236  and  _237
REMARK   99  A    between atoms: _246  and  _248
REMARK  100  A    between atoms: _248  and  _249
REMARK  101  A    between atoms: _248  and  _251
REMARK  102  A    between atoms: _251  and  _252
REMARK  103  A    between atoms: _257  and  _259
REMARK  104  A    between atoms: _259  and  _260
REMARK  105  A    between atoms: _259  and  _262
REMARK  106  A    between atoms: _262  and  _263
REMARK  107  A    between atoms: _263  and  _264
REMARK  108  A    between atoms: _264  and  _265
REMARK  109  A    between atoms: _274  and  _276
REMARK  110  A    between atoms: _276  and  _277
REMARK  111  A    between atoms: _276  and  _279
REMARK  112  A    between atoms: _279  and  _280
REMARK  113  A    between atoms: _283  and  _285
REMARK  114  A    between atoms: _285  and  _286
REMARK  115  A    between atoms: _285  and  _288
REMARK  116  A    between atoms: _288  and  _289
REMARK  117  A    between atoms: _292  and  _294
REMARK  118  A    between atoms: _294  and  _295
REMARK  119  A    between atoms: _294  and  _297
REMARK  120  A    between atoms: _297  and  _298
REMARK  121  A    between atoms: _301  and  _303
REMARK  122  A    between atoms: _303  and  _304
REMARK  123  A    between atoms: _303  and  _306
REMARK  124  A    between atoms: _306  and  _307
REMARK  125  A    between atoms: _310  and  _312
REMARK  126  A    between atoms: _312  and  _313
REMARK  127  A    between atoms: _315  and  _317
REMARK  128  A    between atoms: _317  and  _318
REMARK  129  A    between atoms: _321  and  _323
REMARK  130  A    between atoms: _323  and  _324
REMARK  131  A    between atoms: _323  and  _326
REMARK  132  A    between atoms: _326  and  _327
REMARK  133  A    between atoms: _330  and  _332
REMARK  134  A    between atoms: _332  and  _333
REMARK  135  A    between atoms: _332  and  _335
REMARK  136  A    between atoms: _335  and  _336
REMARK  137  A    between atoms: _339  and  _341
REMARK  138  A    between atoms: _341  and  _342
REMARK  139  A    between atoms: _341  and  _344
REMARK  140  A    between atoms: _344  and  _345
REMARK  141  A    between atoms: _348  and  _350
REMARK  142  A    between atoms: _350  and  _351
REMARK  143  A    between atoms: _350  and  _353
REMARK  144  A    between atoms: _356  and  _358
REMARK  145  A    between atoms: _358  and  _359
REMARK  146  A    between atoms: _358  and  _361
REMARK  147  A    between atoms: _361  and  _362
REMARK  148  A    between atoms: _362  and  _363
REMARK  149  A    between atoms: _363  and  _364
REMARK  150  A    between atoms: _364  and  _365
REMARK  151  A    between atoms: _369  and  _371
REMARK  152  A    between atoms: _371  and  _372
REMARK  153  A    between atoms: _371  and  _374
REMARK  154  A    between atoms: _374  and  _375
REMARK  155  A    between atoms: _375  and  _376
REMARK  156  A    between atoms: _378  and  _380
REMARK  157  A    between atoms: _380  and  _381
REMARK  158  A    between atoms: _380  and  _383
REMARK  159  A    between atoms: _383  and  _384
REMARK  160  A    between atoms: _387  and  _389
REMARK  161  A    between atoms: _389  and  _390
REMARK  162  A    between atoms: _392  and  _394
REMARK  163  A    between atoms: _394  and  _395
REMARK  164  A    between atoms: _397  and  _399
REMARK  165  A    between atoms: _399  and  _400
REMARK  166  A    between atoms: _399  and  _402
REMARK  167  A    between atoms: _402  and  _403
REMARK  168  A    between atoms: _406  and  _408
REMARK  169  A    between atoms: _408  and  _409
REMARK  170  A    between atoms: _411  and  _413
REMARK  171  A    between atoms: _413  and  _414
REMARK  172  A    between atoms: _416  and  _418
REMARK  173  A    between atoms: _418  and  _419
REMARK  174  A    between atoms: _418  and  _421
REMARK  175  A    between atoms: _421  and  _422
REMARK  176  A    between atoms: _425  and  _427
REMARK  177  A    between atoms: _427  and  _428
REMARK  178  A    between atoms: _427  and  _430
REMARK  179  A    between atoms: _430  and  _431
REMARK  180  A    between atoms: _435  and  _436
REMARK  181  A    between atoms: _441  and  _443
REMARK  182  A    between atoms: _443  and  _444
REMARK  183  A    between atoms: _443  and  _446
REMARK  184  A    between atoms: _449  and  _451
REMARK  185  A    between atoms: _451  and  _452
REMARK  186  A    between atoms: _451  and  _454
REMARK  187  A    between atoms: _454  and  _455
REMARK  188  A    between atoms: _460  and  _462
REMARK  189  A    between atoms: _462  and  _463
REMARK  190  A    between atoms: _462  and  _465
REMARK  191  A    between atoms: _465  and  _466
REMARK  192  A    between atoms: _469  and  _471
REMARK  193  A    between atoms: _471  and  _472
REMARK  194  A    between atoms: _471  and  _474
REMARK  195  A    between atoms: _474  and  _475
REMARK  196  A    between atoms: _478  and  _480
REMARK  197  A    between atoms: _480  and  _481
REMARK  198  A    between atoms: _483  and  _485
REMARK  199  A    between atoms: _485  and  _486
REMARK  200  A    between atoms: _485  and  _488
REMARK  201  A    between atoms: _488  and  _489
REMARK  202  A    between atoms: _489  and  _490
REMARK  203  A    between atoms: _490  and  _491
REMARK                            x       y       z     vdW  Elec       q    Type
REMARK                         _______ _______ _______ _____ _____    ______ ____
ROOT
ATOM      1  CA  ILE A   5     -16.619  16.392  22.562  0.00  0.00    +0.149 C 
ENDROOT
BRANCH   1   4
ATOM      2  C   ASN A   4     -18.185  14.538  23.079  0.00  0.00    +0.241 C 
ATOM      3  O   ASN A   4     -18.692  15.110  24.068  0.00  0.00    -0.273 OA
ATOM      4  N   ILE A   5     -17.230  15.073  22.324  0.00  0.00    -0.297 N 
ATOM      5  H   ILE A   5     -16.891  14.522  21.509  0.00  0.00    +0.150 HD
BRANCH   2   6
ATOM      6  CA  ASN A   4     -18.674  13.155  22.696  0.00  0.00    +0.158 C 
BRANCH   6   8
ATOM      7  C   VAL A   3     -17.756  11.948  24.624  0.00  0.00    +0.241 C 
ATOM      8  N   ASN A   4     -18.723  12.616  24.051  0.00  0.00    -0.297 N 
ATOM      9  H   ASN A   4     -19.591  12.775  24.602  0.00  0.00    +0.150 HD
ATOM     10  O   VAL A   3     -16.723  11.703  24.029  0.00  0.00    -0.273 OA
BRANCH   7  11
ATOM     11  CA  VAL A   3     -17.965  11.463  26.060  0.00  0.00    +0.149 C 
BRANCH  11  14
ATOM     12  C   PRO A   2     -17.082   9.138  26.751  0.00  0.00    +0.241 C 
ATOM     13  O   PRO A   2     -18.072   8.619  27.280  0.00  0.00    -0.273 OA
ATOM     14  N   VAL A   3     -16.967  10.400  26.261  0.00  0.00    -0.297 N 
ATOM     15  H   VAL A   3     -16.001  10.662  25.977  0.00  0.00    +0.150 HD
BRANCH  12  18
ATOM     16  C   THR A   1     -14.803   8.125  24.431  0.00  0.00    +0.244 C 
ATOM     17  N   PRO A   2     -14.696   8.584  25.686  0.00  0.00    -0.272 N 
ATOM     18  CA  PRO A   2     -15.711   8.398  26.775  0.00  0.00    +0.152 C 
ATOM     19  CB  PRO A   2     -14.922   8.742  28.067  0.00  0.00    +0.031 C 
ATOM     20  CG  PRO A   2     -13.487   8.583  27.689  0.00  0.00    +0.024 C 
ATOM     21  CD  PRO A   2     -13.455   9.121  26.299  0.00  0.00    +0.094 C 
ATOM     22  O   THR A   1     -15.714   7.367  24.095  0.00  0.00    -0.273 OA
BRANCH  16  23
ATOM     23  CA  THR A   1     -13.733   8.523  23.433  0.00  0.00    +0.172 C 
BRANCH  23  24
ATOM     24  N   THR A   1     -13.680   7.478  22.417  0.00  0.00    -0.236 NA
ATOM     25  H   THR A   1     -14.112   7.682  21.493  0.00  0.00    +0.142 HD
ENDBRANCH  23  24
BRANCH  23  26
ATOM     26  CB  THR A   1     -14.091   9.887  22.821  0.00  0.00    +0.135 C 
ATOM     27  CG2 THR A   1     -15.347   9.858  22.015  0.00  0.00    +0.034 C 
BRANCH  26  28
ATOM     28  OG1 THR A   1     -14.254  10.814  23.884  0.00  0.00    -0.383 OA
ATOM     29  HG1 THR A   1     -14.980  10.505  24.481  0.00  0.00    +0.210 HD
ENDBRANCH  26  28
ENDBRANCH  23  26
ENDBRANCH  16  23
ENDBRANCH  12  18
ENDBRANCH  11  14
BRANCH  11  30
ATOM     30  CB  VAL A   3     -17.802  12.763  26.929  0.00  0.00    +0.027 C 
ATOM     31  CG2 VAL A   3     -16.698  12.698  27.905  0.00  0.00    +0.002 C 
ATOM     32  CG1 VAL A   3     -19.068  12.942  27.722  0.00  0.00    +0.002 C 
ENDBRANCH  11  30
ENDBRANCH   7  11
ENDBRANCH   6   8
BRANCH   6  33
ATOM     33  CB  ASN A   4     -20.064  13.281  22.082  0.00  0.00    +0.114 C 
BRANCH  33  34
ATOM     34  CG  ASN A   4     -20.696  11.956  21.808  0.00  0.00    +0.222 C 
ATOM     35  ND2 ASN A   4     -21.833  11.606  22.357  0.00  0.00    -0.329 N 
ATOM     36 HD21 ASN A   4     -22.328  12.264  22.993  0.00  0.00    +0.145 HD
ATOM     37 HD22 ASN A   4     -22.241  10.670  22.157  0.00  0.00    +0.145 HD
ATOM     38  OD1 ASN A   4     -20.113  11.199  21.068  0.00  0.00    -0.275 OA
ENDBRANCH  33  34
ENDBRANCH   6  33
ENDBRANCH   2   6
ENDBRANCH   1   4
BRANCH   1  39
ATOM     39  C   ILE A   5     -16.746  17.292  21.339  0.00  0.00    +0.241 C 
ATOM     40  N   ILE A   6     -17.217  18.517  21.590  0.00  0.00    -0.297 N 
ATOM     41  H   ILE A   6     -17.472  18.752  22.571  0.00  0.00    +0.150 HD
ATOM     42  O   ILE A   5     -16.454  16.860  20.222  0.00  0.00    -0.273 OA
BRANCH  40  43
ATOM     43  CA  ILE A   6     -17.395  19.545  20.569  0.00  0.00    +0.149 C 
BRANCH  43  44
ATOM     44  C   ILE A   6     -16.245  20.453  20.968  0.00  0.00    +0.241 C 
ATOM     45  O   ILE A   6     -16.315  20.986  22.073  0.00  0.00    -0.273 OA
ATOM     46  N   GLY A   7     -15.207  20.507  20.124  0.00  0.00    -0.295 N 
ATOM     47  H   GLY A   7     -15.271  19.966  19.238  0.00  0.00    +0.150 HD
BRANCH  46  48
ATOM     48  CA  GLY A   7     -13.991  21.277  20.369  0.00  0.00    +0.176 C 
BRANCH  48  49
ATOM     49  C   GLY A   7     -13.974  22.571  19.592  0.00  0.00    +0.243 C 
ATOM     50  N   ARG A   8     -12.903  23.358  19.664  0.00  0.00    -0.298 N 
ATOM     51  H   ARG A   8     -12.068  23.024  20.187  0.00  0.00    +0.150 HD
ATOM     52  O   GLY A   7     -14.952  22.849  18.880  0.00  0.00    -0.273 OA
BRANCH  50  53
ATOM     53  CA  ARG A   8     -12.861  24.664  19.039  0.00  0.00    +0.137 C 
BRANCH  53  54
ATOM     54  C   ARG A   8     -13.093  24.827  17.540  0.00  0.00    +0.227 C 
ATOM     55  O   ARG A   8     -13.416  25.919  17.089  0.00  0.00    -0.286 OA
ENDBRANCH  53  54
BRANCH  53  56
ATOM     56  CB  ARG A   8     -11.543  25.310  19.382  0.00  0.00    +0.031 C 
BRANCH  56  57
ATOM     57  CG  ARG A   8     -11.377  25.748  20.839  0.00  0.00    +0.045 C 
BRANCH  57  58
ATOM     58  CD  ARG A   8     -10.116  26.593  20.970  0.00  0.00    +0.174 C 
BRANCH  58  59
ATOM     59  NE  ARG A   8      -8.893  25.865  20.591  0.00  0.00    -0.265 N 
ATOM     60  HE  ARG A   8      -8.575  25.100  21.220  0.00  0.00    +0.259 HD
ATOM     61  CZ  ARG A   8      -8.167  26.110  19.509  0.00  0.00    +0.342 C 
ATOM     62  NH2 ARG A   8      -7.091  25.375  19.264  0.00  0.00    -0.292 N 
ATOM     63 HH21 ARG A   8      -6.822  24.613  19.918  0.00  0.00    +0.255 HD
ATOM     64 HH22 ARG A   8      -6.516  25.561  18.417  0.00  0.00    +0.255 HD
ATOM     65  NH1 ARG A   8      -8.515  27.078  18.685  0.00  0.00    -0.292 N 
ATOM     66 HH11 ARG A   8      -9.360  27.651  18.883  0.00  0.00    +0.255 HD
ATOM     67 HH12 ARG A   8      -7.945  27.269  17.837  0.00  0.00    +0.255 HD
ENDBRANCH  58  59
ENDBRANCH  57  58
ENDBRANCH  56  57
ENDBRANCH  53  56
ENDBRANCH  50  53
ENDBRANCH  48  49
ENDBRANCH  46  48
ENDBRANCH  43  44
BRANCH  43  68
ATOM     68  CB  ILE A   6     -18.727  20.350  20.669  0.00  0.00    +0.027 C 
ATOM     69  CG2 ILE A   6     -18.801  21.301  19.495  0.00  0.00    +0.002 C 
BRANCH  68  70
ATOM     70  CG1 ILE A   6     -19.938  19.428  20.578  0.00  0.00    +0.002 C 
ATOM     71  CD1 ILE A   6     -20.027  18.459  19.377  0.00  0.00    +0.000 C 
ENDBRANCH  68  70
ENDBRANCH  43  68
ENDBRANCH  40  43
ENDBRANCH   1  39
BRANCH   1  72
ATOM     72  CB  ILE A   5     -15.080  16.203  22.946  0.00  0.00    +0.027 C 
ATOM     73  CG2 ILE A   5     -14.422  17.523  23.157  0.00  0.00    +0.002 C 
BRANCH  72  74
ATOM     74  CG1 ILE A   5     -14.891  15.550  24.299  0.00  0.00    +0.002 C 
ATOM     75  CD1 ILE A   5     -13.768  14.539  24.200  0.00  0.00    +0.000 C 
ENDBRANCH  72  74
ENDBRANCH   1  72
TORSDOF 28
REMARK  Name = ../refined-set-2016/1hbv/1hbv_pocket.pdb
REMARK  203 active torsions:
REMARK  status: ('A' for Active; 'I' for Inactive)
REMARK    1  A    between atoms: _1  and  _3
REMARK    2  A    between atoms: _3  and  _4
REMARK    3  A    between atoms: _3  and  _6
REMARK    4  A    between atoms: _6  and  _7
REMARK    5  A    between atoms: _7  and  _8
REMARK    6  A    between atoms: _8  and  _9
REMARK    7  A    between atoms: _18  and  _20
REMARK    8  A    between atoms: _20  and  _21
REMARK    9  A    between atoms: _20  and  _23
REMARK   10  A    between atoms: _23  and  _24
REMARK   11  A    between atoms: _27  and  _29
REMARK   12  A    between atoms: _29  and  _30
REMARK   13  A    between atoms: _29  and  _32
REMARK   14  A    between atoms: _32  and  _33
REMARK   15  A    between atoms: _36  and  _38
REMARK   16  A    between atoms: _38  and  _39
REMARK   17  A    between atoms: _38  and  _41
REMARK   18  A    between atoms: _41  and  _42
REMARK   19  A    between atoms: _45  and  _47
REMARK   20  A    between atoms: _47  and  _48
REMARK   21  A    between atoms: _50  and  _52
REMARK   22  A    between atoms: _52  and  _53
REMARK   23  A    between atoms: _56  and  _58
REMARK   24  A    between atoms: _58  and  _59
REMARK   25  A    between atoms: _58  and  _61
REMARK   26  A    between atoms: _61  and  _62
REMARK   27  A    between atoms: _65  and  _67
REMARK   28  A    between atoms: _67  and  _68
REMARK   29  A    between atoms: _67  and  _70
REMARK   30  A    between atoms: _70  and  _71
REMARK   31  A    between atoms: _74  and  _76
REMARK   32  A    between atoms: _76  and  _77
REMARK   33  A    between atoms: _76  and  _79
REMARK   34  A    between atoms: _79  and  _80
REMARK   35  A    between atoms: _83  and  _85
REMARK   36  A    between atoms: _85  and  _86
REMARK   37  A    between atoms: _85  and  _88
REMARK   38  A    between atoms: _91  and  _93
REMARK   39  A    between atoms: _93  and  _94
REMARK   40  A    between atoms: _93  and  _96
REMARK   41  A    between atoms: _96  and  _97
REMARK   42  A    between atoms: _97  and  _98
REMARK   43  A    between atoms: _100  and  _102
REMARK   44  A    between atoms: _102  and  _103
REMARK   45  A    between atoms: _102  and  _105
REMARK   46  A    between atoms: _105  and  _106
REMARK   47  A    between atoms: _109  and  _111
REMARK   48  A    between atoms: _111  and  _112
REMARK   49  A    between atoms: _114  and  _116
REMARK   50  A    between atoms: _116  and  _117
REMARK   51  A    between atoms: _119  and  _121
REMARK   52  A    between atoms: _121  and  _122
REMARK   53  A    between atoms: _121  and  _124
REMARK   54  A    between atoms: _124  and  _125
REMARK   55  A    between atoms: _128  and  _130
REMARK   56  A    between atoms: _130  and  _131
REMARK   57  A    between atoms: _133  and  _135
REMARK   58  A    between atoms: _135  and  _136
REMARK   59  A    between atoms: _138  and  _140
REMARK   60  A    between atoms: _140  and  _141
REMARK   61  A    between atoms: _140  and  _143
REMARK   62  A    between atoms: _143  and  _144
REMARK   63  A    between atoms: _147  and  _149
REMARK   64  A    between atoms: _149  and  _150
REMARK   65  A    between atoms: _149  and  _152
REMARK   66  A    between atoms: _155  and  _157
REMARK   67  A    between atoms: _157  and  _158
REMARK   68  A    between atoms: _157  and  _160
REMARK   69  A    between atoms: _160  and  _161
REMARK   70  A    between atoms: _165  and  _166
REMARK   71  A    between atoms: _171  and  _173
REMARK   72  A    between atoms: _173  and  _174
REMARK   73  A    between atoms: _173  and  _176
REMARK   74  A    between atoms: _176  and  _177
REMARK   75  A    between atoms: _181  and  _182
REMARK   76  A    between atoms: _187  and  _189
REMARK   77  A    between atoms: _189  and  _190
REMARK   78  A    between atoms: _189  and  _192
REMARK   79  A    between atoms: _195  and  _197
REMARK   80  A    between atoms: _197  and  _198
REMARK   81  A    between atoms: _197  and  _200
REMARK   82  A    between atoms: _200  and  _201
REMARK   83  A    between atoms: _206  and  _208
REMARK   84  A    between atoms: _208  and  _209
REMARK   85  A    between atoms: _208  and  _211
REMARK   86  A    between atoms: _211  and  _212
REMARK   87  A    between atoms: _215  and  _217
REMARK   88  A    between atoms: _217  and  _218
REMARK   89  A    between atoms: _217  and  _220
REMARK   90  A    between atoms: _220  and  _221
REMARK   91  A    between atoms: _224  and  _226
REMARK   92  A    between atoms: _226  and  _227
REMARK   93  A    between atoms: _229  and  _231
REMARK   94  A    between atoms: _231  and  _232
REMARK   95  A    between atoms: _231  and  _234
REMARK   96  A    between atoms: _234  and  _235
REMARK   97  A    between atoms: _235  and  _236
REMARK   98  A    between atoms: _236  and  _237
REMARK   99  A    between atoms: _246  and  _248
REMARK  100  A    between atoms: _248  and  _249
REMARK  101  A    between atoms: _248  and  _251
REMARK  102  A    between atoms: _251  and  _252
REMARK  103  A    between atoms: _257  and  _259
REMARK  104  A    between atoms: _259  and  _260
REMARK  105  A    between atoms: _259  and  _262
REMARK  106  A    between atoms: _262  and  _263
REMARK  107  A    between atoms: _263  and  _264
REMARK  108  A    between atoms: _264  and  _265
REMARK  109  A    between atoms: _274  and  _276
REMARK  110  A    between atoms: _276  and  _277
REMARK  111  A    between atoms: _276  and  _279
REMARK  112  A    between atoms: _279  and  _280
REMARK  113  A    between atoms: _283  and  _285
REMARK  114  A    between atoms: _285  and  _286
REMARK  115  A    between atoms: _285  and  _288
REMARK  116  A    between atoms: _288  and  _289
REMARK  117  A    between atoms: _292  and  _294
REMARK  118  A    between atoms: _294  and  _295
REMARK  119  A    between atoms: _294  and  _297
REMARK  120  A    between atoms: _297  and  _298
REMARK  121  A    between atoms: _301  and  _303
REMARK  122  A    between atoms: _303  and  _304
REMARK  123  A    between atoms: _303  and  _306
REMARK  124  A    between atoms: _306  and  _307
REMARK  125  A    between atoms: _310  and  _312
REMARK  126  A    between atoms: _312  and  _313
REMARK  127  A    between atoms: _315  and  _317
REMARK  128  A    between atoms: _317  and  _318
REMARK  129  A    between atoms: _321  and  _323
REMARK  130  A    between atoms: _323  and  _324
REMARK  131  A    between atoms: _323  and  _326
REMARK  132  A    between atoms: _326  and  _327
REMARK  133  A    between atoms: _330  and  _332
REMARK  134  A    between atoms: _332  and  _333
REMARK  135  A    between atoms: _332  and  _335
REMARK  136  A    between atoms: _335  and  _336
REMARK  137  A    between atoms: _339  and  _341
REMARK  138  A    between atoms: _341  and  _342
REMARK  139  A    between atoms: _341  and  _344
REMARK  140  A    between atoms: _344  and  _345
REMARK  141  A    between atoms: _348  and  _350
REMARK  142  A    between atoms: _350  and  _351
REMARK  143  A    between atoms: _350  and  _353
REMARK  144  A    between atoms: _356  and  _358
REMARK  145  A    between atoms: _358  and  _359
REMARK  146  A    between atoms: _358  and  _361
REMARK  147  A    between atoms: _361  and  _362
REMARK  148  A    between atoms: _362  and  _363
REMARK  149  A    between atoms: _363  and  _364
REMARK  150  A    between atoms: _364  and  _365
REMARK  151  A    between atoms: _369  and  _371
REMARK  152  A    between atoms: _371  and  _372
REMARK  153  A    between atoms: _371  and  _374
REMARK  154  A    between atoms: _374  and  _375
REMARK  155  A    between atoms: _375  and  _376
REMARK  156  A    between atoms: _378  and  _380
REMARK  157  A    between atoms: _380  and  _381
REMARK  158  A    between atoms: _380  and  _383
REMARK  159  A    between atoms: _383  and  _384
REMARK  160  A    between atoms: _387  and  _389
REMARK  161  A    between atoms: _389  and  _390
REMARK  162  A    between atoms: _392  and  _394
REMARK  163  A    between atoms: _394  and  _395
REMARK  164  A    between atoms: _397  and  _399
REMARK  165  A    between atoms: _399  and  _400
REMARK  166  A    between atoms: _399  and  _402
REMARK  167  A    between atoms: _402  and  _403
REMARK  168  A    between atoms: _406  and  _408
REMARK  169  A    between atoms: _408  and  _409
REMARK  170  A    between atoms: _411  and  _413
REMARK  171  A    between atoms: _413  and  _414
REMARK  172  A    between atoms: _416  and  _418
REMARK  173  A    between atoms: _418  and  _419
REMARK  174  A    between atoms: _418  and  _421
REMARK  175  A    between atoms: _421  and  _422
REMARK  176  A    between atoms: _425  and  _427
REMARK  177  A    between atoms: _427  and  _428
REMARK  178  A    between atoms: _427  and  _430
REMARK  179  A    between atoms: _430  and  _431
REMARK  180  A    between atoms: _435  and  _436
REMARK  181  A    between atoms: _441  and  _443
REMARK  182  A    between atoms: _443  and  _444
REMARK  183  A    between atoms: _443  and  _446
REMARK  184  A    between atoms: _449  and  _451
REMARK  185  A    between atoms: _451  and  _452
REMARK  186  A    between atoms: _451  and  _454
REMARK  187  A    between atoms: _454  and  _455
REMARK  188  A    between atoms: _460  and  _462
REMARK  189  A    between atoms: _462  and  _463
REMARK  190  A    between atoms: _462  and  _465
REMARK  191  A    between atoms: _465  and  _466
REMARK  192  A    between atoms: _469  and  _471
REMARK  193  A    between atoms: _471  and  _472
REMARK  194  A    between atoms: _471  and  _474
REMARK  195  A    between atoms: _474  and  _475
REMARK  196  A    between atoms: _478  and  _480
REMARK  197  A    between atoms: _480  and  _481
REMARK  198  A    between atoms: _483  and  _485
REMARK  199  A    between atoms: _485  and  _486
REMARK  200  A    between atoms: _485  and  _488
REMARK  201  A    between atoms: _488  and  _489
REMARK  202  A    between atoms: _489  and  _490
REMARK  203  A    between atoms: _490  and  _491
REMARK                            x       y       z     vdW  Elec       q    Type
REMARK                         _______ _______ _______ _____ _____    ______ ____
ROOT
ATOM      1  O   HOH     1      -8.239  13.917  28.136  0.00  0.00    +0.000 OA
ENDROOT
TORSDOF 0
REMARK  Name = ../refined-set-2016/1hbv/1hbv_pocket.pdb
REMARK  203 active torsions:
REMARK  status: ('A' for Active; 'I' for Inactive)
REMARK    1  A    between atoms: _1  and  _3
REMARK    2  A    between atoms: _3  and  _4
REMARK    3  A    between atoms: _3  and  _6
REMARK    4  A    between atoms: _6  and  _7
REMARK    5  A    between atoms: _7  and  _8
REMARK    6  A    between atoms: _8  and  _9
REMARK    7  A    between atoms: _18  and  _20
REMARK    8  A    between atoms: _20  and  _21
REMARK    9  A    between atoms: _20  and  _23
REMARK   10  A    between atoms: _23  and  _24
REMARK   11  A    between atoms: _27  and  _29
REMARK   12  A    between atoms: _29  and  _30
REMARK   13  A    between atoms: _29  and  _32
REMARK   14  A    between atoms: _32  and  _33
REMARK   15  A    between atoms: _36  and  _38
REMARK   16  A    between atoms: _38  and  _39
REMARK   17  A    between atoms: _38  and  _41
REMARK   18  A    between atoms: _41  and  _42
REMARK   19  A    between atoms: _45  and  _47
REMARK   20  A    between atoms: _47  and  _48
REMARK   21  A    between atoms: _50  and  _52
REMARK   22  A    between atoms: _52  and  _53
REMARK   23  A    between atoms: _56  and  _58
REMARK   24  A    between atoms: _58  and  _59
REMARK   25  A    between atoms: _58  and  _61
REMARK   26  A    between atoms: _61  and  _62
REMARK   27  A    between atoms: _65  and  _67
REMARK   28  A    between atoms: _67  and  _68
REMARK   29  A    between atoms: _67  and  _70
REMARK   30  A    between atoms: _70  and  _71
REMARK   31  A    between atoms: _74  and  _76
REMARK   32  A    between atoms: _76  and  _77
REMARK   33  A    between atoms: _76  and  _79
REMARK   34  A    between atoms: _79  and  _80
REMARK   35  A    between atoms: _83  and  _85
REMARK   36  A    between atoms: _85  and  _86
REMARK   37  A    between atoms: _85  and  _88
REMARK   38  A    between atoms: _91  and  _93
REMARK   39  A    between atoms: _93  and  _94
REMARK   40  A    between atoms: _93  and  _96
REMARK   41  A    between atoms: _96  and  _97
REMARK   42  A    between atoms: _97  and  _98
REMARK   43  A    between atoms: _100  and  _102
REMARK   44  A    between atoms: _102  and  _103
REMARK   45  A    between atoms: _102  and  _105
REMARK   46  A    between atoms: _105  and  _106
REMARK   47  A    between atoms: _109  and  _111
REMARK   48  A    between atoms: _111  and  _112
REMARK   49  A    between atoms: _114  and  _116
REMARK   50  A    between atoms: _116  and  _117
REMARK   51  A    between atoms: _119  and  _121
REMARK   52  A    between atoms: _121  and  _122
REMARK   53  A    between atoms: _121  and  _124
REMARK   54  A    between atoms: _124  and  _125
REMARK   55  A    between atoms: _128  and  _130
REMARK   56  A    between atoms: _130  and  _131
REMARK   57  A    between atoms: _133  and  _135
REMARK   58  A    between atoms: _135  and  _136
REMARK   59  A    between atoms: _138  and  _140
REMARK   60  A    between atoms: _140  and  _141
REMARK   61  A    between atoms: _140  and  _143
REMARK   62  A    between atoms: _143  and  _144
REMARK   63  A    between atoms: _147  and  _149
REMARK   64  A    between atoms: _149  and  _150
REMARK   65  A    between atoms: _149  and  _152
REMARK   66  A    between atoms: _155  and  _157
REMARK   67  A    between atoms: _157  and  _158
REMARK   68  A    between atoms: _157  and  _160
REMARK   69  A    between atoms: _160  and  _161
REMARK   70  A    between atoms: _165  and  _166
REMARK   71  A    between atoms: _171  and  _173
REMARK   72  A    between atoms: _173  and  _174
REMARK   73  A    between atoms: _173  and  _176
REMARK   74  A    between atoms: _176  and  _177
REMARK   75  A    between atoms: _181  and  _182
REMARK   76  A    between atoms: _187  and  _189
REMARK   77  A    between atoms: _189  and  _190
REMARK   78  A    between atoms: _189  and  _192
REMARK   79  A    between atoms: _195  and  _197
REMARK   80  A    between atoms: _197  and  _198
REMARK   81  A    between atoms: _197  and  _200
REMARK   82  A    between atoms: _200  and  _201
REMARK   83  A    between atoms: _206  and  _208
REMARK   84  A    between atoms: _208  and  _209
REMARK   85  A    between atoms: _208  and  _211
REMARK   86  A    between atoms: _211  and  _212
REMARK   87  A    between atoms: _215  and  _217
REMARK   88  A    between atoms: _217  and  _218
REMARK   89  A    between atoms: _217  and  _220
REMARK   90  A    between atoms: _220  and  _221
REMARK   91  A    between atoms: _224  and  _226
REMARK   92  A    between atoms: _226  and  _227
REMARK   93  A    between atoms: _229  and  _231
REMARK   94  A    between atoms: _231  and  _232
REMARK   95  A    between atoms: _231  and  _234
REMARK   96  A    between atoms: _234  and  _235
REMARK   97  A    between atoms: _235  and  _236
REMARK   98  A    between atoms: _236  and  _237
REMARK   99  A    between atoms: _246  and  _248
REMARK  100  A    between atoms: _248  and  _249
REMARK  101  A    between atoms: _248  and  _251
REMARK  102  A    between atoms: _251  and  _252
REMARK  103  A    between atoms: _257  and  _259
REMARK  104  A    between atoms: _259  and  _260
REMARK  105  A    between atoms: _259  and  _262
REMARK  106  A    between atoms: _262  and  _263
REMARK  107  A    between atoms: _263  and  _264
REMARK  108  A    between atoms: _264  and  _265
REMARK  109  A    between atoms: _274  and  _276
REMARK  110  A    between atoms: _276  and  _277
REMARK  111  A    between atoms: _276  and  _279
REMARK  112  A    between atoms: _279  and  _280
REMARK  113  A    between atoms: _283  and  _285
REMARK  114  A    between atoms: _285  and  _286
REMARK  115  A    between atoms: _285  and  _288
REMARK  116  A    between atoms: _288  and  _289
REMARK  117  A    between atoms: _292  and  _294
REMARK  118  A    between atoms: _294  and  _295
REMARK  119  A    between atoms: _294  and  _297
REMARK  120  A    between atoms: _297  and  _298
REMARK  121  A    between atoms: _301  and  _303
REMARK  122  A    between atoms: _303  and  _304
REMARK  123  A    between atoms: _303  and  _306
REMARK  124  A    between atoms: _306  and  _307
REMARK  125  A    between atoms: _310  and  _312
REMARK  126  A    between atoms: _312  and  _313
REMARK  127  A    between atoms: _315  and  _317
REMARK  128  A    between atoms: _317  and  _318
REMARK  129  A    between atoms: _321  and  _323
REMARK  130  A    between atoms: _323  and  _324
REMARK  131  A    between atoms: _323  and  _326
REMARK  132  A    between atoms: _326  and  _327
REMARK  133  A    between atoms: _330  and  _332
REMARK  134  A    between atoms: _332  and  _333
REMARK  135  A    between atoms: _332  and  _335
REMARK  136  A    between atoms: _335  and  _336
REMARK  137  A    between atoms: _339  and  _341
REMARK  138  A    between atoms: _341  and  _342
REMARK  139  A    between atoms: _341  and  _344
REMARK  140  A    between atoms: _344  and  _345
REMARK  141  A    between atoms: _348  and  _350
REMARK  142  A    between atoms: _350  and  _351
REMARK  143  A    between atoms: _350  and  _353
REMARK  144  A    between atoms: _356  and  _358
REMARK  145  A    between atoms: _358  and  _359
REMARK  146  A    between atoms: _358  and  _361
REMARK  147  A    between atoms: _361  and  _362
REMARK  148  A    between atoms: _362  and  _363
REMARK  149  A    between atoms: _363  and  _364
REMARK  150  A    between atoms: _364  and  _365
REMARK  151  A    between atoms: _369  and  _371
REMARK  152  A    between atoms: _371  and  _372
REMARK  153  A    between atoms: _371  and  _374
REMARK  154  A    between atoms: _374  and  _375
REMARK  155  A    between atoms: _375  and  _376
REMARK  156  A    between atoms: _378  and  _380
REMARK  157  A    between atoms: _380  and  _381
REMARK  158  A    between atoms: _380  and  _383
REMARK  159  A    between atoms: _383  and  _384
REMARK  160  A    between atoms: _387  and  _389
REMARK  161  A    between atoms: _389  and  _390
REMARK  162  A    between atoms: _392  and  _394
REMARK  163  A    between atoms: _394  and  _395
REMARK  164  A    between atoms: _397  and  _399
REMARK  165  A    between atoms: _399  and  _400
REMARK  166  A    between atoms: _399  and  _402
REMARK  167  A    between atoms: _402  and  _403
REMARK  168  A    between atoms: _406  and  _408
REMARK  169  A    between atoms: _408  and  _409
REMARK  170  A    between atoms: _411  and  _413
REMARK  171  A    between atoms: _413  and  _414
REMARK  172  A    between atoms: _416  and  _418
REMARK  173  A    between atoms: _418  and  _419
REMARK  174  A    between atoms: _418  and  _421
REMARK  175  A    between atoms: _421  and  _422
REMARK  176  A    between atoms: _425  and  _427
REMARK  177  A    between atoms: _427  and  _428
REMARK  178  A    between atoms: _427  and  _430
REMARK  179  A    between atoms: _430  and  _431
REMARK  180  A    between atoms: _435  and  _436
REMARK  181  A    between atoms: _441  and  _443
REMARK  182  A    between atoms: _443  and  _444
REMARK  183  A    between atoms: _443  and  _446
REMARK  184  A    between atoms: _449  and  _451
REMARK  185  A    between atoms: _451  and  _452
REMARK  186  A    between atoms: _451  and  _454
REMARK  187  A    between atoms: _454  and  _455
REMARK  188  A    between atoms: _460  and  _462
REMARK  189  A    between atoms: _462  and  _463
REMARK  190  A    between atoms: _462  and  _465
REMARK  191  A    between atoms: _465  and  _466
REMARK  192  A    between atoms: _469  and  _471
REMARK  193  A    between atoms: _471  and  _472
REMARK  194  A    between atoms: _471  and  _474
REMARK  195  A    between atoms: _474  and  _475
REMARK  196  A    between atoms: _478  and  _480
REMARK  197  A    between atoms: _480  and  _481
REMARK  198  A    between atoms: _483  and  _485
REMARK  199  A    between atoms: _485  and  _486
REMARK  200  A    between atoms: _485  and  _488
REMARK  201  A    between atoms: _488  and  _489
REMARK  202  A    between atoms: _489  and  _490
REMARK  203  A    between atoms: _490  and  _491
REMARK                            x       y       z     vdW  Elec       q    Type
REMARK                         _______ _______ _______ _____ _____    ______ ____
ROOT
ATOM      1  O   HOH     1      -9.227  19.588  40.766  0.00  0.00    +0.000 OA
ENDROOT
TORSDOF 0
REMARK  Name = ../refined-set-2016/1hbv/1hbv_pocket.pdb
REMARK  203 active torsions:
REMARK  status: ('A' for Active; 'I' for Inactive)
REMARK    1  A    between atoms: _1  and  _3
REMARK    2  A    between atoms: _3  and  _4
REMARK    3  A    between atoms: _3  and  _6
REMARK    4  A    between atoms: _6  and  _7
REMARK    5  A    between atoms: _7  and  _8
REMARK    6  A    between atoms: _8  and  _9
REMARK    7  A    between atoms: _18  and  _20
REMARK    8  A    between atoms: _20  and  _21
REMARK    9  A    between atoms: _20  and  _23
REMARK   10  A    between atoms: _23  and  _24
REMARK   11  A    between atoms: _27  and  _29
REMARK   12  A    between atoms: _29  and  _30
REMARK   13  A    between atoms: _29  and  _32
REMARK   14  A    between atoms: _32  and  _33
REMARK   15  A    between atoms: _36  and  _38
REMARK   16  A    between atoms: _38  and  _39
REMARK   17  A    between atoms: _38  and  _41
REMARK   18  A    between atoms: _41  and  _42
REMARK   19  A    between atoms: _45  and  _47
REMARK   20  A    between atoms: _47  and  _48
REMARK   21  A    between atoms: _50  and  _52
REMARK   22  A    between atoms: _52  and  _53
REMARK   23  A    between atoms: _56  and  _58
REMARK   24  A    between atoms: _58  and  _59
REMARK   25  A    between atoms: _58  and  _61
REMARK   26  A    between atoms: _61  and  _62
REMARK   27  A    between atoms: _65  and  _67
REMARK   28  A    between atoms: _67  and  _68
REMARK   29  A    between atoms: _67  and  _70
REMARK   30  A    between atoms: _70  and  _71
REMARK   31  A    between atoms: _74  and  _76
REMARK   32  A    between atoms: _76  and  _77
REMARK   33  A    between atoms: _76  and  _79
REMARK   34  A    between atoms: _79  and  _80
REMARK   35  A    between atoms: _83  and  _85
REMARK   36  A    between atoms: _85  and  _86
REMARK   37  A    between atoms: _85  and  _88
REMARK   38  A    between atoms: _91  and  _93
REMARK   39  A    between atoms: _93  and  _94
REMARK   40  A    between atoms: _93  and  _96
REMARK   41  A    between atoms: _96  and  _97
REMARK   42  A    between atoms: _97  and  _98
REMARK   43  A    between atoms: _100  and  _102
REMARK   44  A    between atoms: _102  and  _103
REMARK   45  A    between atoms: _102  and  _105
REMARK   46  A    between atoms: _105  and  _106
REMARK   47  A    between atoms: _109  and  _111
REMARK   48  A    between atoms: _111  and  _112
REMARK   49  A    between atoms: _114  and  _116
REMARK   50  A    between atoms: _116  and  _117
REMARK   51  A    between atoms: _119  and  _121
REMARK   52  A    between atoms: _121  and  _122
REMARK   53  A    between atoms: _121  and  _124
REMARK   54  A    between atoms: _124  and  _125
REMARK   55  A    between atoms: _128  and  _130
REMARK   56  A    between atoms: _130  and  _131
REMARK   57  A    between atoms: _133  and  _135
REMARK   58  A    between atoms: _135  and  _136
REMARK   59  A    between atoms: _138  and  _140
REMARK   60  A    between atoms: _140  and  _141
REMARK   61  A    between atoms: _140  and  _143
REMARK   62  A    between atoms: _143  and  _144
REMARK   63  A    between atoms: _147  and  _149
REMARK   64  A    between atoms: _149  and  _150
REMARK   65  A    between atoms: _149  and  _152
REMARK   66  A    between atoms: _155  and  _157
REMARK   67  A    between atoms: _157  and  _158
REMARK   68  A    between atoms: _157  and  _160
REMARK   69  A    between atoms: _160  and  _161
REMARK   70  A    between atoms: _165  and  _166
REMARK   71  A    between atoms: _171  and  _173
REMARK   72  A    between atoms: _173  and  _174
REMARK   73  A    between atoms: _173  and  _176
REMARK   74  A    between atoms: _176  and  _177
REMARK   75  A    between atoms: _181  and  _182
REMARK   76  A    between atoms: _187  and  _189
REMARK   77  A    between atoms: _189  and  _190
REMARK   78  A    between atoms: _189  and  _192
REMARK   79  A    between atoms: _195  and  _197
REMARK   80  A    between atoms: _197  and  _198
REMARK   81  A    between atoms: _197  and  _200
REMARK   82  A    between atoms: _200  and  _201
REMARK   83  A    between atoms: _206  and  _208
REMARK   84  A    between atoms: _208  and  _209
REMARK   85  A    between atoms: _208  and  _211
REMARK   86  A    between atoms: _211  and  _212
REMARK   87  A    between atoms: _215  and  _217
REMARK   88  A    between atoms: _217  and  _218
REMARK   89  A    between atoms: _217  and  _220
REMARK   90  A    between atoms: _220  and  _221
REMARK   91  A    between atoms: _224  and  _226
REMARK   92  A    between atoms: _226  and  _227
REMARK   93  A    between atoms: _229  and  _231
REMARK   94  A    between atoms: _231  and  _232
REMARK   95  A    between atoms: _231  and  _234
REMARK   96  A    between atoms: _234  and  _235
REMARK   97  A    between atoms: _235  and  _236
REMARK   98  A    between atoms: _236  and  _237
REMARK   99  A    between atoms: _246  and  _248
REMARK  100  A    between atoms: _248  and  _249
REMARK  101  A    between atoms: _248  and  _251
REMARK  102  A    between atoms: _251  and  _252
REMARK  103  A    between atoms: _257  and  _259
REMARK  104  A    between atoms: _259  and  _260
REMARK  105  A    between atoms: _259  and  _262
REMARK  106  A    between atoms: _262  and  _263
REMARK  107  A    between atoms: _263  and  _264
REMARK  108  A    between atoms: _264  and  _265
REMARK  109  A    between atoms: _274  and  _276
REMARK  110  A    between atoms: _276  and  _277
REMARK  111  A    between atoms: _276  and  _279
REMARK  112  A    between atoms: _279  and  _280
REMARK  113  A    between atoms: _283  and  _285
REMARK  114  A    between atoms: _285  and  _286
REMARK  115  A    between atoms: _285  and  _288
REMARK  116  A    between atoms: _288  and  _289
REMARK  117  A    between atoms: _292  and  _294
REMARK  118  A    between atoms: _294  and  _295
REMARK  119  A    between atoms: _294  and  _297
REMARK  120  A    between atoms: _297  and  _298
REMARK  121  A    between atoms: _301  and  _303
REMARK  122  A    between atoms: _303  and  _304
REMARK  123  A    between atoms: _303  and  _306
REMARK  124  A    between atoms: _306  and  _307
REMARK  125  A    between atoms: _310  and  _312
REMARK  126  A    between atoms: _312  and  _313
REMARK  127  A    between atoms: _315  and  _317
REMARK  128  A    between atoms: _317  and  _318
REMARK  129  A    between atoms: _321  and  _323
REMARK  130  A    between atoms: _323  and  _324
REMARK  131  A    between atoms: _323  and  _326
REMARK  132  A    between atoms: _326  and  _327
REMARK  133  A    between atoms: _330  and  _332
REMARK  134  A    between atoms: _332  and  _333
REMARK  135  A    between atoms: _332  and  _335
REMARK  136  A    between atoms: _335  and  _336
REMARK  137  A    between atoms: _339  and  _341
REMARK  138  A    between atoms: _341  and  _342
REMARK  139  A    between atoms: _341  and  _344
REMARK  140  A    between atoms: _344  and  _345
REMARK  141  A    between atoms: _348  and  _350
REMARK  142  A    between atoms: _350  and  _351
REMARK  143  A    between atoms: _350  and  _353
REMARK  144  A    between atoms: _356  and  _358
REMARK  145  A    between atoms: _358  and  _359
REMARK  146  A    between atoms: _358  and  _361
REMARK  147  A    between atoms: _361  and  _362
REMARK  148  A    between atoms: _362  and  _363
REMARK  149  A    between atoms: _363  and  _364
REMARK  150  A    between atoms: _364  and  _365
REMARK  151  A    between atoms: _369  and  _371
REMARK  152  A    between atoms: _371  and  _372
REMARK  153  A    between atoms: _371  and  _374
REMARK  154  A    between atoms: _374  and  _375
REMARK  155  A    between atoms: _375  and  _376
REMARK  156  A    between atoms: _378  and  _380
REMARK  157  A    between atoms: _380  and  _381
REMARK  158  A    between atoms: _380  and  _383
REMARK  159  A    between atoms: _383  and  _384
REMARK  160  A    between atoms: _387  and  _389
REMARK  161  A    between atoms: _389  and  _390
REMARK  162  A    between atoms: _392  and  _394
REMARK  163  A    between atoms: _394  and  _395
REMARK  164  A    between atoms: _397  and  _399
REMARK  165  A    between atoms: _399  and  _400
REMARK  166  A    between atoms: _399  and  _402
REMARK  167  A    between atoms: _402  and  _403
REMARK  168  A    between atoms: _406  and  _408
REMARK  169  A    between atoms: _408  and  _409
REMARK  170  A    between atoms: _411  and  _413
REMARK  171  A    between atoms: _413  and  _414
REMARK  172  A    between atoms: _416  and  _418
REMARK  173  A    between atoms: _418  and  _419
REMARK  174  A    between atoms: _418  and  _421
REMARK  175  A    between atoms: _421  and  _422
REMARK  176  A    between atoms: _425  and  _427
REMARK  177  A    between atoms: _427  and  _428
REMARK  178  A    between atoms: _427  and  _430
REMARK  179  A    between atoms: _430  and  _431
REMARK  180  A    between atoms: _435  and  _436
REMARK  181  A    between atoms: _441  and  _443
REMARK  182  A    between atoms: _443  and  _444
REMARK  183  A    between atoms: _443  and  _446
REMARK  184  A    between atoms: _449  and  _451
REMARK  185  A    between atoms: _451  and  _452
REMARK  186  A    between atoms: _451  and  _454
REMARK  187  A    between atoms: _454  and  _455
REMARK  188  A    between atoms: _460  and  _462
REMARK  189  A    between atoms: _462  and  _463
REMARK  190  A    between atoms: _462  and  _465
REMARK  191  A    between atoms: _465  and  _466
REMARK  192  A    between atoms: _469  and  _471
REMARK  193  A    between atoms: _471  and  _472
REMARK  194  A    between atoms: _471  and  _474
REMARK  195  A    between atoms: _474  and  _475
REMARK  196  A    between atoms: _478  and  _480
REMARK  197  A    between atoms: _480  and  _481
REMARK  198  A    between atoms: _483  and  _485
REMARK  199  A    between atoms: _485  and  _486
REMARK  200  A    between atoms: _485  and  _488
REMARK  201  A    between atoms: _488  and  _489
REMARK  202  A    between atoms: _489  and  _490
REMARK  203  A    between atoms: _490  and  _491
REMARK                            x       y       z     vdW  Elec       q    Type
REMARK                         _______ _______ _______ _____ _____    ______ ____
ROOT
ATOM      1  O   HOH     1     -16.995  19.443  32.348  0.00  0.00    +0.000 OA
ENDROOT
TORSDOF 0
REMARK  Name = ../refined-set-2016/1hbv/1hbv_pocket.pdb
REMARK  203 active torsions:
REMARK  status: ('A' for Active; 'I' for Inactive)
REMARK    1  A    between atoms: _1  and  _3
REMARK    2  A    between atoms: _3  and  _4
REMARK    3  A    between atoms: _3  and  _6
REMARK    4  A    between atoms: _6  and  _7
REMARK    5  A    between atoms: _7  and  _8
REMARK    6  A    between atoms: _8  and  _9
REMARK    7  A    between atoms: _18  and  _20
REMARK    8  A    between atoms: _20  and  _21
REMARK    9  A    between atoms: _20  and  _23
REMARK   10  A    between atoms: _23  and  _24
REMARK   11  A    between atoms: _27  and  _29
REMARK   12  A    between atoms: _29  and  _30
REMARK   13  A    between atoms: _29  and  _32
REMARK   14  A    between atoms: _32  and  _33
REMARK   15  A    between atoms: _36  and  _38
REMARK   16  A    between atoms: _38  and  _39
REMARK   17  A    between atoms: _38  and  _41
REMARK   18  A    between atoms: _41  and  _42
REMARK   19  A    between atoms: _45  and  _47
REMARK   20  A    between atoms: _47  and  _48
REMARK   21  A    between atoms: _50  and  _52
REMARK   22  A    between atoms: _52  and  _53
REMARK   23  A    between atoms: _56  and  _58
REMARK   24  A    between atoms: _58  and  _59
REMARK   25  A    between atoms: _58  and  _61
REMARK   26  A    between atoms: _61  and  _62
REMARK   27  A    between atoms: _65  and  _67
REMARK   28  A    between atoms: _67  and  _68
REMARK   29  A    between atoms: _67  and  _70
REMARK   30  A    between atoms: _70  and  _71
REMARK   31  A    between atoms: _74  and  _76
REMARK   32  A    between atoms: _76  and  _77
REMARK   33  A    between atoms: _76  and  _79
REMARK   34  A    between atoms: _79  and  _80
REMARK   35  A    between atoms: _83  and  _85
REMARK   36  A    between atoms: _85  and  _86
REMARK   37  A    between atoms: _85  and  _88
REMARK   38  A    between atoms: _91  and  _93
REMARK   39  A    between atoms: _93  and  _94
REMARK   40  A    between atoms: _93  and  _96
REMARK   41  A    between atoms: _96  and  _97
REMARK   42  A    between atoms: _97  and  _98
REMARK   43  A    between atoms: _100  and  _102
REMARK   44  A    between atoms: _102  and  _103
REMARK   45  A    between atoms: _102  and  _105
REMARK   46  A    between atoms: _105  and  _106
REMARK   47  A    between atoms: _109  and  _111
REMARK   48  A    between atoms: _111  and  _112
REMARK   49  A    between atoms: _114  and  _116
REMARK   50  A    between atoms: _116  and  _117
REMARK   51  A    between atoms: _119  and  _121
REMARK   52  A    between atoms: _121  and  _122
REMARK   53  A    between atoms: _121  and  _124
REMARK   54  A    between atoms: _124  and  _125
REMARK   55  A    between atoms: _128  and  _130
REMARK   56  A    between atoms: _130  and  _131
REMARK   57  A    between atoms: _133  and  _135
REMARK   58  A    between atoms: _135  and  _136
REMARK   59  A    between atoms: _138  and  _140
REMARK   60  A    between atoms: _140  and  _141
REMARK   61  A    between atoms: _140  and  _143
REMARK   62  A    between atoms: _143  and  _144
REMARK   63  A    between atoms: _147  and  _149
REMARK   64  A    between atoms: _149  and  _150
REMARK   65  A    between atoms: _149  and  _152
REMARK   66  A    between atoms: _155  and  _157
REMARK   67  A    between atoms: _157  and  _158
REMARK   68  A    between atoms: _157  and  _160
REMARK   69  A    between atoms: _160  and  _161
REMARK   70  A    between atoms: _165  and  _166
REMARK   71  A    between atoms: _171  and  _173
REMARK   72  A    between atoms: _173  and  _174
REMARK   73  A    between atoms: _173  and  _176
REMARK   74  A    between atoms: _176  and  _177
REMARK   75  A    between atoms: _181  and  _182
REMARK   76  A    between atoms: _187  and  _189
REMARK   77  A    between atoms: _189  and  _190
REMARK   78  A    between atoms: _189  and  _192
REMARK   79  A    between atoms: _195  and  _197
REMARK   80  A    between atoms: _197  and  _198
REMARK   81  A    between atoms: _197  and  _200
REMARK   82  A    between atoms: _200  and  _201
REMARK   83  A    between atoms: _206  and  _208
REMARK   84  A    between atoms: _208  and  _209
REMARK   85  A    between atoms: _208  and  _211
REMARK   86  A    between atoms: _211  and  _212
REMARK   87  A    between atoms: _215  and  _217
REMARK   88  A    between atoms: _217  and  _218
REMARK   89  A    between atoms: _217  and  _220
REMARK   90  A    between atoms: _220  and  _221
REMARK   91  A    between atoms: _224  and  _226
REMARK   92  A    between atoms: _226  and  _227
REMARK   93  A    between atoms: _229  and  _231
REMARK   94  A    between atoms: _231  and  _232
REMARK   95  A    between atoms: _231  and  _234
REMARK   96  A    between atoms: _234  and  _235
REMARK   97  A    between atoms: _235  and  _236
REMARK   98  A    between atoms: _236  and  _237
REMARK   99  A    between atoms: _246  and  _248
REMARK  100  A    between atoms: _248  and  _249
REMARK  101  A    between atoms: _248  and  _251
REMARK  102  A    between atoms: _251  and  _252
REMARK  103  A    between atoms: _257  and  _259
REMARK  104  A    between atoms: _259  and  _260
REMARK  105  A    between atoms: _259  and  _262
REMARK  106  A    between atoms: _262  and  _263
REMARK  107  A    between atoms: _263  and  _264
REMARK  108  A    between atoms: _264  and  _265
REMARK  109  A    between atoms: _274  and  _276
REMARK  110  A    between atoms: _276  and  _277
REMARK  111  A    between atoms: _276  and  _279
REMARK  112  A    between atoms: _279  and  _280
REMARK  113  A    between atoms: _283  and  _285
REMARK  114  A    between atoms: _285  and  _286
REMARK  115  A    between atoms: _285  and  _288
REMARK  116  A    between atoms: _288  and  _289
REMARK  117  A    between atoms: _292  and  _294
REMARK  118  A    between atoms: _294  and  _295
REMARK  119  A    between atoms: _294  and  _297
REMARK  120  A    between atoms: _297  and  _298
REMARK  121  A    between atoms: _301  and  _303
REMARK  122  A    between atoms: _303  and  _304
REMARK  123  A    between atoms: _303  and  _306
REMARK  124  A    between atoms: _306  and  _307
REMARK  125  A    between atoms: _310  and  _312
REMARK  126  A    between atoms: _312  and  _313
REMARK  127  A    between atoms: _315  and  _317
REMARK  128  A    between atoms: _317  and  _318
REMARK  129  A    between atoms: _321  and  _323
REMARK  130  A    between atoms: _323  and  _324
REMARK  131  A    between atoms: _323  and  _326
REMARK  132  A    between atoms: _326  and  _327
REMARK  133  A    between atoms: _330  and  _332
REMARK  134  A    between atoms: _332  and  _333
REMARK  135  A    between atoms: _332  and  _335
REMARK  136  A    between atoms: _335  and  _336
REMARK  137  A    between atoms: _339  and  _341
REMARK  138  A    between atoms: _341  and  _342
REMARK  139  A    between atoms: _341  and  _344
REMARK  140  A    between atoms: _344  and  _345
REMARK  141  A    between atoms: _348  and  _350
REMARK  142  A    between atoms: _350  and  _351
REMARK  143  A    between atoms: _350  and  _353
REMARK  144  A    between atoms: _356  and  _358
REMARK  145  A    between atoms: _358  and  _359
REMARK  146  A    between atoms: _358  and  _361
REMARK  147  A    between atoms: _361  and  _362
REMARK  148  A    between atoms: _362  and  _363
REMARK  149  A    between atoms: _363  and  _364
REMARK  150  A    between atoms: _364  and  _365
REMARK  151  A    between atoms: _369  and  _371
REMARK  152  A    between atoms: _371  and  _372
REMARK  153  A    between atoms: _371  and  _374
REMARK  154  A    between atoms: _374  and  _375
REMARK  155  A    between atoms: _375  and  _376
REMARK  156  A    between atoms: _378  and  _380
REMARK  157  A    between atoms: _380  and  _381
REMARK  158  A    between atoms: _380  and  _383
REMARK  159  A    between atoms: _383  and  _384
REMARK  160  A    between atoms: _387  and  _389
REMARK  161  A    between atoms: _389  and  _390
REMARK  162  A    between atoms: _392  and  _394
REMARK  163  A    between atoms: _394  and  _395
REMARK  164  A    between atoms: _397  and  _399
REMARK  165  A    between atoms: _399  and  _400
REMARK  166  A    between atoms: _399  and  _402
REMARK  167  A    between atoms: _402  and  _403
REMARK  168  A    between atoms: _406  and  _408
REMARK  169  A    between atoms: _408  and  _409
REMARK  170  A    between atoms: _411  and  _413
REMARK  171  A    between atoms: _413  and  _414
REMARK  172  A    between atoms: _416  and  _418
REMARK  173  A    between atoms: _418  and  _419
REMARK  174  A    between atoms: _418  and  _421
REMARK  175  A    between atoms: _421  and  _422
REMARK  176  A    between atoms: _425  and  _427
REMARK  177  A    between atoms: _427  and  _428
REMARK  178  A    between atoms: _427  and  _430
REMARK  179  A    between atoms: _430  and  _431
REMARK  180  A    between atoms: _435  and  _436
REMARK  181  A    between atoms: _441  and  _443
REMARK  182  A    between atoms: _443  and  _444
REMARK  183  A    between atoms: _443  and  _446
REMARK  184  A    between atoms: _449  and  _451
REMARK  185  A    between atoms: _451  and  _452
REMARK  186  A    between atoms: _451  and  _454
REMARK  187  A    between atoms: _454  and  _455
REMARK  188  A    between atoms: _460  and  _462
REMARK  189  A    between atoms: _462  and  _463
REMARK  190  A    between atoms: _462  and  _465
REMARK  191  A    between atoms: _465  and  _466
REMARK  192  A    between atoms: _469  and  _471
REMARK  193  A    between atoms: _471  and  _472
REMARK  194  A    between atoms: _471  and  _474
REMARK  195  A    between atoms: _474  and  _475
REMARK  196  A    between atoms: _478  and  _480
REMARK  197  A    between atoms: _480  and  _481
REMARK  198  A    between atoms: _483  and  _485
REMARK  199  A    between atoms: _485  and  _486
REMARK  200  A    between atoms: _485  and  _488
REMARK  201  A    between atoms: _488  and  _489
REMARK  202  A    between atoms: _489  and  _490
REMARK  203  A    between atoms: _490  and  _491
REMARK                            x       y       z     vdW  Elec       q    Type
REMARK                         _______ _______ _______ _____ _____    ______ ____
ROOT
ATOM      1  O   HOH     1      -0.451  26.066  23.394  0.00  0.00    +0.000 OA
ENDROOT
TORSDOF 0
REMARK  Name = ../refined-set-2016/1hbv/1hbv_pocket.pdb
REMARK  203 active torsions:
REMARK  status: ('A' for Active; 'I' for Inactive)
REMARK    1  A    between atoms: _1  and  _3
REMARK    2  A    between atoms: _3  and  _4
REMARK    3  A    between atoms: _3  and  _6
REMARK    4  A    between atoms: _6  and  _7
REMARK    5  A    between atoms: _7  and  _8
REMARK    6  A    between atoms: _8  and  _9
REMARK    7  A    between atoms: _18  and  _20
REMARK    8  A    between atoms: _20  and  _21
REMARK    9  A    between atoms: _20  and  _23
REMARK   10  A    between atoms: _23  and  _24
REMARK   11  A    between atoms: _27  and  _29
REMARK   12  A    between atoms: _29  and  _30
REMARK   13  A    between atoms: _29  and  _32
REMARK   14  A    between atoms: _32  and  _33
REMARK   15  A    between atoms: _36  and  _38
REMARK   16  A    between atoms: _38  and  _39
REMARK   17  A    between atoms: _38  and  _41
REMARK   18  A    between atoms: _41  and  _42
REMARK   19  A    between atoms: _45  and  _47
REMARK   20  A    between atoms: _47  and  _48
REMARK   21  A    between atoms: _50  and  _52
REMARK   22  A    between atoms: _52  and  _53
REMARK   23  A    between atoms: _56  and  _58
REMARK   24  A    between atoms: _58  and  _59
REMARK   25  A    between atoms: _58  and  _61
REMARK   26  A    between atoms: _61  and  _62
REMARK   27  A    between atoms: _65  and  _67
REMARK   28  A    between atoms: _67  and  _68
REMARK   29  A    between atoms: _67  and  _70
REMARK   30  A    between atoms: _70  and  _71
REMARK   31  A    between atoms: _74  and  _76
REMARK   32  A    between atoms: _76  and  _77
REMARK   33  A    between atoms: _76  and  _79
REMARK   34  A    between atoms: _79  and  _80
REMARK   35  A    between atoms: _83  and  _85
REMARK   36  A    between atoms: _85  and  _86
REMARK   37  A    between atoms: _85  and  _88
REMARK   38  A    between atoms: _91  and  _93
REMARK   39  A    between atoms: _93  and  _94
REMARK   40  A    between atoms: _93  and  _96
REMARK   41  A    between atoms: _96  and  _97
REMARK   42  A    between atoms: _97  and  _98
REMARK   43  A    between atoms: _100  and  _102
REMARK   44  A    between atoms: _102  and  _103
REMARK   45  A    between atoms: _102  and  _105
REMARK   46  A    between atoms: _105  and  _106
REMARK   47  A    between atoms: _109  and  _111
REMARK   48  A    between atoms: _111  and  _112
REMARK   49  A    between atoms: _114  and  _116
REMARK   50  A    between atoms: _116  and  _117
REMARK   51  A    between atoms: _119  and  _121
REMARK   52  A    between atoms: _121  and  _122
REMARK   53  A    between atoms: _121  and  _124
REMARK   54  A    between atoms: _124  and  _125
REMARK   55  A    between atoms: _128  and  _130
REMARK   56  A    between atoms: _130  and  _131
REMARK   57  A    between atoms: _133  and  _135
REMARK   58  A    between atoms: _135  and  _136
REMARK   59  A    between atoms: _138  and  _140
REMARK   60  A    between atoms: _140  and  _141
REMARK   61  A    between atoms: _140  and  _143
REMARK   62  A    between atoms: _143  and  _144
REMARK   63  A    between atoms: _147  and  _149
REMARK   64  A    between atoms: _149  and  _150
REMARK   65  A    between atoms: _149  and  _152
REMARK   66  A    between atoms: _155  and  _157
REMARK   67  A    between atoms: _157  and  _158
REMARK   68  A    between atoms: _157  and  _160
REMARK   69  A    between atoms: _160  and  _161
REMARK   70  A    between atoms: _165  and  _166
REMARK   71  A    between atoms: _171  and  _173
REMARK   72  A    between atoms: _173  and  _174
REMARK   73  A    between atoms: _173  and  _176
REMARK   74  A    between atoms: _176  and  _177
REMARK   75  A    between atoms: _181  and  _182
REMARK   76  A    between atoms: _187  and  _189
REMARK   77  A    between atoms: _189  and  _190
REMARK   78  A    between atoms: _189  and  _192
REMARK   79  A    between atoms: _195  and  _197
REMARK   80  A    between atoms: _197  and  _198
REMARK   81  A    between atoms: _197  and  _200
REMARK   82  A    between atoms: _200  and  _201
REMARK   83  A    between atoms: _206  and  _208
REMARK   84  A    between atoms: _208  and  _209
REMARK   85  A    between atoms: _208  and  _211
REMARK   86  A    between atoms: _211  and  _212
REMARK   87  A    between atoms: _215  and  _217
REMARK   88  A    between atoms: _217  and  _218
REMARK   89  A    between atoms: _217  and  _220
REMARK   90  A    between atoms: _220  and  _221
REMARK   91  A    between atoms: _224  and  _226
REMARK   92  A    between atoms: _226  and  _227
REMARK   93  A    between atoms: _229  and  _231
REMARK   94  A    between atoms: _231  and  _232
REMARK   95  A    between atoms: _231  and  _234
REMARK   96  A    between atoms: _234  and  _235
REMARK   97  A    between atoms: _235  and  _236
REMARK   98  A    between atoms: _236  and  _237
REMARK   99  A    between atoms: _246  and  _248
REMARK  100  A    between atoms: _248  and  _249
REMARK  101  A    between atoms: _248  and  _251
REMARK  102  A    between atoms: _251  and  _252
REMARK  103  A    between atoms: _257  and  _259
REMARK  104  A    between atoms: _259  and  _260
REMARK  105  A    between atoms: _259  and  _262
REMARK  106  A    between atoms: _262  and  _263
REMARK  107  A    between atoms: _263  and  _264
REMARK  108  A    between atoms: _264  and  _265
REMARK  109  A    between atoms: _274  and  _276
REMARK  110  A    between atoms: _276  and  _277
REMARK  111  A    between atoms: _276  and  _279
REMARK  112  A    between atoms: _279  and  _280
REMARK  113  A    between atoms: _283  and  _285
REMARK  114  A    between atoms: _285  and  _286
REMARK  115  A    between atoms: _285  and  _288
REMARK  116  A    between atoms: _288  and  _289
REMARK  117  A    between atoms: _292  and  _294
REMARK  118  A    between atoms: _294  and  _295
REMARK  119  A    between atoms: _294  and  _297
REMARK  120  A    between atoms: _297  and  _298
REMARK  121  A    between atoms: _301  and  _303
REMARK  122  A    between atoms: _303  and  _304
REMARK  123  A    between atoms: _303  and  _306
REMARK  124  A    between atoms: _306  and  _307
REMARK  125  A    between atoms: _310  and  _312
REMARK  126  A    between atoms: _312  and  _313
REMARK  127  A    between atoms: _315  and  _317
REMARK  128  A    between atoms: _317  and  _318
REMARK  129  A    between atoms: _321  and  _323
REMARK  130  A    between atoms: _323  and  _324
REMARK  131  A    between atoms: _323  and  _326
REMARK  132  A    between atoms: _326  and  _327
REMARK  133  A    between atoms: _330  and  _332
REMARK  134  A    between atoms: _332  and  _333
REMARK  135  A    between atoms: _332  and  _335
REMARK  136  A    between atoms: _335  and  _336
REMARK  137  A    between atoms: _339  and  _341
REMARK  138  A    between atoms: _341  and  _342
REMARK  139  A    between atoms: _341  and  _344
REMARK  140  A    between atoms: _344  and  _345
REMARK  141  A    between atoms: _348  and  _350
REMARK  142  A    between atoms: _350  and  _351
REMARK  143  A    between atoms: _350  and  _353
REMARK  144  A    between atoms: _356  and  _358
REMARK  145  A    between atoms: _358  and  _359
REMARK  146  A    between atoms: _358  and  _361
REMARK  147  A    between atoms: _361  and  _362
REMARK  148  A    between atoms: _362  and  _363
REMARK  149  A    between atoms: _363  and  _364
REMARK  150  A    between atoms: _364  and  _365
REMARK  151  A    between atoms: _369  and  _371
REMARK  152  A    between atoms: _371  and  _372
REMARK  153  A    between atoms: _371  and  _374
REMARK  154  A    between atoms: _374  and  _375
REMARK  155  A    between atoms: _375  and  _376
REMARK  156  A    between atoms: _378  and  _380
REMARK  157  A    between atoms: _380  and  _381
REMARK  158  A    between atoms: _380  and  _383
REMARK  159  A    between atoms: _383  and  _384
REMARK  160  A    between atoms: _387  and  _389
REMARK  161  A    between atoms: _389  and  _390
REMARK  162  A    between atoms: _392  and  _394
REMARK  163  A    between atoms: _394  and  _395
REMARK  164  A    between atoms: _397  and  _399
REMARK  165  A    between atoms: _399  and  _400
REMARK  166  A    between atoms: _399  and  _402
REMARK  167  A    between atoms: _402  and  _403
REMARK  168  A    between atoms: _406  and  _408
REMARK  169  A    between atoms: _408  and  _409
REMARK  170  A    between atoms: _411  and  _413
REMARK  171  A    between atoms: _413  and  _414
REMARK  172  A    between atoms: _416  and  _418
REMARK  173  A    between atoms: _418  and  _419
REMARK  174  A    between atoms: _418  and  _421
REMARK  175  A    between atoms: _421  and  _422
REMARK  176  A    between atoms: _425  and  _427
REMARK  177  A    between atoms: _427  and  _428
REMARK  178  A    between atoms: _427  and  _430
REMARK  179  A    between atoms: _430  and  _431
REMARK  180  A    between atoms: _435  and  _436
REMARK  181  A    between atoms: _441  and  _443
REMARK  182  A    between atoms: _443  and  _444
REMARK  183  A    between atoms: _443  and  _446
REMARK  184  A    between atoms: _449  and  _451
REMARK  185  A    between atoms: _451  and  _452
REMARK  186  A    between atoms: _451  and  _454
REMARK  187  A    between atoms: _454  and  _455
REMARK  188  A    between atoms: _460  and  _462
REMARK  189  A    between atoms: _462  and  _463
REMARK  190  A    between atoms: _462  and  _465
REMARK  191  A    between atoms: _465  and  _466
REMARK  192  A    between atoms: _469  and  _471
REMARK  193  A    between atoms: _471  and  _472
REMARK  194  A    between atoms: _471  and  _474
REMARK  195  A    between atoms: _474  and  _475
REMARK  196  A    between atoms: _478  and  _480
REMARK  197  A    between atoms: _480  and  _481
REMARK  198  A    between atoms: _483  and  _485
REMARK  199  A    between atoms: _485  and  _486
REMARK  200  A    between atoms: _485  and  _488
REMARK  201  A    between atoms: _488  and  _489
REMARK  202  A    between atoms: _489  and  _490
REMARK  203  A    between atoms: _490  and  _491
REMARK                            x       y       z     vdW  Elec       q    Type
REMARK                         _______ _______ _______ _____ _____    ______ ____
ROOT
ATOM      1  O   HOH     1      -7.935  24.310  22.959  0.00  0.00    +0.000 OA
ENDROOT
TORSDOF 0
REMARK  Name = ../refined-set-2016/1hbv/1hbv_pocket.pdb
REMARK  203 active torsions:
REMARK  status: ('A' for Active; 'I' for Inactive)
REMARK    1  A    between atoms: _1  and  _3
REMARK    2  A    between atoms: _3  and  _4
REMARK    3  A    between atoms: _3  and  _6
REMARK    4  A    between atoms: _6  and  _7
REMARK    5  A    between atoms: _7  and  _8
REMARK    6  A    between atoms: _8  and  _9
REMARK    7  A    between atoms: _18  and  _20
REMARK    8  A    between atoms: _20  and  _21
REMARK    9  A    between atoms: _20  and  _23
REMARK   10  A    between atoms: _23  and  _24
REMARK   11  A    between atoms: _27  and  _29
REMARK   12  A    between atoms: _29  and  _30
REMARK   13  A    between atoms: _29  and  _32
REMARK   14  A    between atoms: _32  and  _33
REMARK   15  A    between atoms: _36  and  _38
REMARK   16  A    between atoms: _38  and  _39
REMARK   17  A    between atoms: _38  and  _41
REMARK   18  A    between atoms: _41  and  _42
REMARK   19  A    between atoms: _45  and  _47
REMARK   20  A    between atoms: _47  and  _48
REMARK   21  A    between atoms: _50  and  _52
REMARK   22  A    between atoms: _52  and  _53
REMARK   23  A    between atoms: _56  and  _58
REMARK   24  A    between atoms: _58  and  _59
REMARK   25  A    between atoms: _58  and  _61
REMARK   26  A    between atoms: _61  and  _62
REMARK   27  A    between atoms: _65  and  _67
REMARK   28  A    between atoms: _67  and  _68
REMARK   29  A    between atoms: _67  and  _70
REMARK   30  A    between atoms: _70  and  _71
REMARK   31  A    between atoms: _74  and  _76
REMARK   32  A    between atoms: _76  and  _77
REMARK   33  A    between atoms: _76  and  _79
REMARK   34  A    between atoms: _79  and  _80
REMARK   35  A    between atoms: _83  and  _85
REMARK   36  A    between atoms: _85  and  _86
REMARK   37  A    between atoms: _85  and  _88
REMARK   38  A    between atoms: _91  and  _93
REMARK   39  A    between atoms: _93  and  _94
REMARK   40  A    between atoms: _93  and  _96
REMARK   41  A    between atoms: _96  and  _97
REMARK   42  A    between atoms: _97  and  _98
REMARK   43  A    between atoms: _100  and  _102
REMARK   44  A    between atoms: _102  and  _103
REMARK   45  A    between atoms: _102  and  _105
REMARK   46  A    between atoms: _105  and  _106
REMARK   47  A    between atoms: _109  and  _111
REMARK   48  A    between atoms: _111  and  _112
REMARK   49  A    between atoms: _114  and  _116
REMARK   50  A    between atoms: _116  and  _117
REMARK   51  A    between atoms: _119  and  _121
REMARK   52  A    between atoms: _121  and  _122
REMARK   53  A    between atoms: _121  and  _124
REMARK   54  A    between atoms: _124  and  _125
REMARK   55  A    between atoms: _128  and  _130
REMARK   56  A    between atoms: _130  and  _131
REMARK   57  A    between atoms: _133  and  _135
REMARK   58  A    between atoms: _135  and  _136
REMARK   59  A    between atoms: _138  and  _140
REMARK   60  A    between atoms: _140  and  _141
REMARK   61  A    between atoms: _140  and  _143
REMARK   62  A    between atoms: _143  and  _144
REMARK   63  A    between atoms: _147  and  _149
REMARK   64  A    between atoms: _149  and  _150
REMARK   65  A    between atoms: _149  and  _152
REMARK   66  A    between atoms: _155  and  _157
REMARK   67  A    between atoms: _157  and  _158
REMARK   68  A    between atoms: _157  and  _160
REMARK   69  A    between atoms: _160  and  _161
REMARK   70  A    between atoms: _165  and  _166
REMARK   71  A    between atoms: _171  and  _173
REMARK   72  A    between atoms: _173  and  _174
REMARK   73  A    between atoms: _173  and  _176
REMARK   74  A    between atoms: _176  and  _177
REMARK   75  A    between atoms: _181  and  _182
REMARK   76  A    between atoms: _187  and  _189
REMARK   77  A    between atoms: _189  and  _190
REMARK   78  A    between atoms: _189  and  _192
REMARK   79  A    between atoms: _195  and  _197
REMARK   80  A    between atoms: _197  and  _198
REMARK   81  A    between atoms: _197  and  _200
REMARK   82  A    between atoms: _200  and  _201
REMARK   83  A    between atoms: _206  and  _208
REMARK   84  A    between atoms: _208  and  _209
REMARK   85  A    between atoms: _208  and  _211
REMARK   86  A    between atoms: _211  and  _212
REMARK   87  A    between atoms: _215  and  _217
REMARK   88  A    between atoms: _217  and  _218
REMARK   89  A    between atoms: _217  and  _220
REMARK   90  A    between atoms: _220  and  _221
REMARK   91  A    between atoms: _224  and  _226
REMARK   92  A    between atoms: _226  and  _227
REMARK   93  A    between atoms: _229  and  _231
REMARK   94  A    between atoms: _231  and  _232
REMARK   95  A    between atoms: _231  and  _234
REMARK   96  A    between atoms: _234  and  _235
REMARK   97  A    between atoms: _235  and  _236
REMARK   98  A    between atoms: _236  and  _237
REMARK   99  A    between atoms: _246  and  _248
REMARK  100  A    between atoms: _248  and  _249
REMARK  101  A    between atoms: _248  and  _251
REMARK  102  A    between atoms: _251  and  _252
REMARK  103  A    between atoms: _257  and  _259
REMARK  104  A    between atoms: _259  and  _260
REMARK  105  A    between atoms: _259  and  _262
REMARK  106  A    between atoms: _262  and  _263
REMARK  107  A    between atoms: _263  and  _264
REMARK  108  A    between atoms: _264  and  _265
REMARK  109  A    between atoms: _274  and  _276
REMARK  110  A    between atoms: _276  and  _277
REMARK  111  A    between atoms: _276  and  _279
REMARK  112  A    between atoms: _279  and  _280
REMARK  113  A    between atoms: _283  and  _285
REMARK  114  A    between atoms: _285  and  _286
REMARK  115  A    between atoms: _285  and  _288
REMARK  116  A    between atoms: _288  and  _289
REMARK  117  A    between atoms: _292  and  _294
REMARK  118  A    between atoms: _294  and  _295
REMARK  119  A    between atoms: _294  and  _297
REMARK  120  A    between atoms: _297  and  _298
REMARK  121  A    between atoms: _301  and  _303
REMARK  122  A    between atoms: _303  and  _304
REMARK  123  A    between atoms: _303  and  _306
REMARK  124  A    between atoms: _306  and  _307
REMARK  125  A    between atoms: _310  and  _312
REMARK  126  A    between atoms: _312  and  _313
REMARK  127  A    between atoms: _315  and  _317
REMARK  128  A    between atoms: _317  and  _318
REMARK  129  A    between atoms: _321  and  _323
REMARK  130  A    between atoms: _323  and  _324
REMARK  131  A    between atoms: _323  and  _326
REMARK  132  A    between atoms: _326  and  _327
REMARK  133  A    between atoms: _330  and  _332
REMARK  134  A    between atoms: _332  and  _333
REMARK  135  A    between atoms: _332  and  _335
REMARK  136  A    between atoms: _335  and  _336
REMARK  137  A    between atoms: _339  and  _341
REMARK  138  A    between atoms: _341  and  _342
REMARK  139  A    between atoms: _341  and  _344
REMARK  140  A    between atoms: _344  and  _345
REMARK  141  A    between atoms: _348  and  _350
REMARK  142  A    between atoms: _350  and  _351
REMARK  143  A    between atoms: _350  and  _353
REMARK  144  A    between atoms: _356  and  _358
REMARK  145  A    between atoms: _358  and  _359
REMARK  146  A    between atoms: _358  and  _361
REMARK  147  A    between atoms: _361  and  _362
REMARK  148  A    between atoms: _362  and  _363
REMARK  149  A    between atoms: _363  and  _364
REMARK  150  A    between atoms: _364  and  _365
REMARK  151  A    between atoms: _369  and  _371
REMARK  152  A    between atoms: _371  and  _372
REMARK  153  A    between atoms: _371  and  _374
REMARK  154  A    between atoms: _374  and  _375
REMARK  155  A    between atoms: _375  and  _376
REMARK  156  A    between atoms: _378  and  _380
REMARK  157  A    between atoms: _380  and  _381
REMARK  158  A    between atoms: _380  and  _383
REMARK  159  A    between atoms: _383  and  _384
REMARK  160  A    between atoms: _387  and  _389
REMARK  161  A    between atoms: _389  and  _390
REMARK  162  A    between atoms: _392  and  _394
REMARK  163  A    between atoms: _394  and  _395
REMARK  164  A    between atoms: _397  and  _399
REMARK  165  A    between atoms: _399  and  _400
REMARK  166  A    between atoms: _399  and  _402
REMARK  167  A    between atoms: _402  and  _403
REMARK  168  A    between atoms: _406  and  _408
REMARK  169  A    between atoms: _408  and  _409
REMARK  170  A    between atoms: _411  and  _413
REMARK  171  A    between atoms: _413  and  _414
REMARK  172  A    between atoms: _416  and  _418
REMARK  173  A    between atoms: _418  and  _419
REMARK  174  A    between atoms: _418  and  _421
REMARK  175  A    between atoms: _421  and  _422
REMARK  176  A    between atoms: _425  and  _427
REMARK  177  A    between atoms: _427  and  _428
REMARK  178  A    between atoms: _427  and  _430
REMARK  179  A    between atoms: _430  and  _431
REMARK  180  A    between atoms: _435  and  _436
REMARK  181  A    between atoms: _441  and  _443
REMARK  182  A    between atoms: _443  and  _444
REMARK  183  A    between atoms: _443  and  _446
REMARK  184  A    between atoms: _449  and  _451
REMARK  185  A    between atoms: _451  and  _452
REMARK  186  A    between atoms: _451  and  _454
REMARK  187  A    between atoms: _454  and  _455
REMARK  188  A    between atoms: _460  and  _462
REMARK  189  A    between atoms: _462  and  _463
REMARK  190  A    between atoms: _462  and  _465
REMARK  191  A    between atoms: _465  and  _466
REMARK  192  A    between atoms: _469  and  _471
REMARK  193  A    between atoms: _471  and  _472
REMARK  194  A    between atoms: _471  and  _474
REMARK  195  A    between atoms: _474  and  _475
REMARK  196  A    between atoms: _478  and  _480
REMARK  197  A    between atoms: _480  and  _481
REMARK  198  A    between atoms: _483  and  _485
REMARK  199  A    between atoms: _485  and  _486
REMARK  200  A    between atoms: _485  and  _488
REMARK  201  A    between atoms: _488  and  _489
REMARK  202  A    between atoms: _489  and  _490
REMARK  203  A    between atoms: _490  and  _491
REMARK                            x       y       z     vdW  Elec       q    Type
REMARK                         _______ _______ _______ _____ _____    ______ ____
ROOT
ATOM      1  O   HOH     1     -12.577  17.353  14.820  0.00  0.00    +0.000 OA
ENDROOT
TORSDOF 0
REMARK  Name = ../refined-set-2016/1hbv/1hbv_pocket.pdb
REMARK  203 active torsions:
REMARK  status: ('A' for Active; 'I' for Inactive)
REMARK    1  A    between atoms: _1  and  _3
REMARK    2  A    between atoms: _3  and  _4
REMARK    3  A    between atoms: _3  and  _6
REMARK    4  A    between atoms: _6  and  _7
REMARK    5  A    between atoms: _7  and  _8
REMARK    6  A    between atoms: _8  and  _9
REMARK    7  A    between atoms: _18  and  _20
REMARK    8  A    between atoms: _20  and  _21
REMARK    9  A    between atoms: _20  and  _23
REMARK   10  A    between atoms: _23  and  _24
REMARK   11  A    between atoms: _27  and  _29
REMARK   12  A    between atoms: _29  and  _30
REMARK   13  A    between atoms: _29  and  _32
REMARK   14  A    between atoms: _32  and  _33
REMARK   15  A    between atoms: _36  and  _38
REMARK   16  A    between atoms: _38  and  _39
REMARK   17  A    between atoms: _38  and  _41
REMARK   18  A    between atoms: _41  and  _42
REMARK   19  A    between atoms: _45  and  _47
REMARK   20  A    between atoms: _47  and  _48
REMARK   21  A    between atoms: _50  and  _52
REMARK   22  A    between atoms: _52  and  _53
REMARK   23  A    between atoms: _56  and  _58
REMARK   24  A    between atoms: _58  and  _59
REMARK   25  A    between atoms: _58  and  _61
REMARK   26  A    between atoms: _61  and  _62
REMARK   27  A    between atoms: _65  and  _67
REMARK   28  A    between atoms: _67  and  _68
REMARK   29  A    between atoms: _67  and  _70
REMARK   30  A    between atoms: _70  and  _71
REMARK   31  A    between atoms: _74  and  _76
REMARK   32  A    between atoms: _76  and  _77
REMARK   33  A    between atoms: _76  and  _79
REMARK   34  A    between atoms: _79  and  _80
REMARK   35  A    between atoms: _83  and  _85
REMARK   36  A    between atoms: _85  and  _86
REMARK   37  A    between atoms: _85  and  _88
REMARK   38  A    between atoms: _91  and  _93
REMARK   39  A    between atoms: _93  and  _94
REMARK   40  A    between atoms: _93  and  _96
REMARK   41  A    between atoms: _96  and  _97
REMARK   42  A    between atoms: _97  and  _98
REMARK   43  A    between atoms: _100  and  _102
REMARK   44  A    between atoms: _102  and  _103
REMARK   45  A    between atoms: _102  and  _105
REMARK   46  A    between atoms: _105  and  _106
REMARK   47  A    between atoms: _109  and  _111
REMARK   48  A    between atoms: _111  and  _112
REMARK   49  A    between atoms: _114  and  _116
REMARK   50  A    between atoms: _116  and  _117
REMARK   51  A    between atoms: _119  and  _121
REMARK   52  A    between atoms: _121  and  _122
REMARK   53  A    between atoms: _121  and  _124
REMARK   54  A    between atoms: _124  and  _125
REMARK   55  A    between atoms: _128  and  _130
REMARK   56  A    between atoms: _130  and  _131
REMARK   57  A    between atoms: _133  and  _135
REMARK   58  A    between atoms: _135  and  _136
REMARK   59  A    between atoms: _138  and  _140
REMARK   60  A    between atoms: _140  and  _141
REMARK   61  A    between atoms: _140  and  _143
REMARK   62  A    between atoms: _143  and  _144
REMARK   63  A    between atoms: _147  and  _149
REMARK   64  A    between atoms: _149  and  _150
REMARK   65  A    between atoms: _149  and  _152
REMARK   66  A    between atoms: _155  and  _157
REMARK   67  A    between atoms: _157  and  _158
REMARK   68  A    between atoms: _157  and  _160
REMARK   69  A    between atoms: _160  and  _161
REMARK   70  A    between atoms: _165  and  _166
REMARK   71  A    between atoms: _171  and  _173
REMARK   72  A    between atoms: _173  and  _174
REMARK   73  A    between atoms: _173  and  _176
REMARK   74  A    between atoms: _176  and  _177
REMARK   75  A    between atoms: _181  and  _182
REMARK   76  A    between atoms: _187  and  _189
REMARK   77  A    between atoms: _189  and  _190
REMARK   78  A    between atoms: _189  and  _192
REMARK   79  A    between atoms: _195  and  _197
REMARK   80  A    between atoms: _197  and  _198
REMARK   81  A    between atoms: _197  and  _200
REMARK   82  A    between atoms: _200  and  _201
REMARK   83  A    between atoms: _206  and  _208
REMARK   84  A    between atoms: _208  and  _209
REMARK   85  A    between atoms: _208  and  _211
REMARK   86  A    between atoms: _211  and  _212
REMARK   87  A    between atoms: _215  and  _217
REMARK   88  A    between atoms: _217  and  _218
REMARK   89  A    between atoms: _217  and  _220
REMARK   90  A    between atoms: _220  and  _221
REMARK   91  A    between atoms: _224  and  _226
REMARK   92  A    between atoms: _226  and  _227
REMARK   93  A    between atoms: _229  and  _231
REMARK   94  A    between atoms: _231  and  _232
REMARK   95  A    between atoms: _231  and  _234
REMARK   96  A    between atoms: _234  and  _235
REMARK   97  A    between atoms: _235  and  _236
REMARK   98  A    between atoms: _236  and  _237
REMARK   99  A    between atoms: _246  and  _248
REMARK  100  A    between atoms: _248  and  _249
REMARK  101  A    between atoms: _248  and  _251
REMARK  102  A    between atoms: _251  and  _252
REMARK  103  A    between atoms: _257  and  _259
REMARK  104  A    between atoms: _259  and  _260
REMARK  105  A    between atoms: _259  and  _262
REMARK  106  A    between atoms: _262  and  _263
REMARK  107  A    between atoms: _263  and  _264
REMARK  108  A    between atoms: _264  and  _265
REMARK  109  A    between atoms: _274  and  _276
REMARK  110  A    between atoms: _276  and  _277
REMARK  111  A    between atoms: _276  and  _279
REMARK  112  A    between atoms: _279  and  _280
REMARK  113  A    between atoms: _283  and  _285
REMARK  114  A    between atoms: _285  and  _286
REMARK  115  A    between atoms: _285  and  _288
REMARK  116  A    between atoms: _288  and  _289
REMARK  117  A    between atoms: _292  and  _294
REMARK  118  A    between atoms: _294  and  _295
REMARK  119  A    between atoms: _294  and  _297
REMARK  120  A    between atoms: _297  and  _298
REMARK  121  A    between atoms: _301  and  _303
REMARK  122  A    between atoms: _303  and  _304
REMARK  123  A    between atoms: _303  and  _306
REMARK  124  A    between atoms: _306  and  _307
REMARK  125  A    between atoms: _310  and  _312
REMARK  126  A    between atoms: _312  and  _313
REMARK  127  A    between atoms: _315  and  _317
REMARK  128  A    between atoms: _317  and  _318
REMARK  129  A    between atoms: _321  and  _323
REMARK  130  A    between atoms: _323  and  _324
REMARK  131  A    between atoms: _323  and  _326
REMARK  132  A    between atoms: _326  and  _327
REMARK  133  A    between atoms: _330  and  _332
REMARK  134  A    between atoms: _332  and  _333
REMARK  135  A    between atoms: _332  and  _335
REMARK  136  A    between atoms: _335  and  _336
REMARK  137  A    between atoms: _339  and  _341
REMARK  138  A    between atoms: _341  and  _342
REMARK  139  A    between atoms: _341  and  _344
REMARK  140  A    between atoms: _344  and  _345
REMARK  141  A    between atoms: _348  and  _350
REMARK  142  A    between atoms: _350  and  _351
REMARK  143  A    between atoms: _350  and  _353
REMARK  144  A    between atoms: _356  and  _358
REMARK  145  A    between atoms: _358  and  _359
REMARK  146  A    between atoms: _358  and  _361
REMARK  147  A    between atoms: _361  and  _362
REMARK  148  A    between atoms: _362  and  _363
REMARK  149  A    between atoms: _363  and  _364
REMARK  150  A    between atoms: _364  and  _365
REMARK  151  A    between atoms: _369  and  _371
REMARK  152  A    between atoms: _371  and  _372
REMARK  153  A    between atoms: _371  and  _374
REMARK  154  A    between atoms: _374  and  _375
REMARK  155  A    between atoms: _375  and  _376
REMARK  156  A    between atoms: _378  and  _380
REMARK  157  A    between atoms: _380  and  _381
REMARK  158  A    between atoms: _380  and  _383
REMARK  159  A    between atoms: _383  and  _384
REMARK  160  A    between atoms: _387  and  _389
REMARK  161  A    between atoms: _389  and  _390
REMARK  162  A    between atoms: _392  and  _394
REMARK  163  A    between atoms: _394  and  _395
REMARK  164  A    between atoms: _397  and  _399
REMARK  165  A    between atoms: _399  and  _400
REMARK  166  A    between atoms: _399  and  _402
REMARK  167  A    between atoms: _402  and  _403
REMARK  168  A    between atoms: _406  and  _408
REMARK  169  A    between atoms: _408  and  _409
REMARK  170  A    between atoms: _411  and  _413
REMARK  171  A    between atoms: _413  and  _414
REMARK  172  A    between atoms: _416  and  _418
REMARK  173  A    between atoms: _418  and  _419
REMARK  174  A    between atoms: _418  and  _421
REMARK  175  A    between atoms: _421  and  _422
REMARK  176  A    between atoms: _425  and  _427
REMARK  177  A    between atoms: _427  and  _428
REMARK  178  A    between atoms: _427  and  _430
REMARK  179  A    between atoms: _430  and  _431
REMARK  180  A    between atoms: _435  and  _436
REMARK  181  A    between atoms: _441  and  _443
REMARK  182  A    between atoms: _443  and  _444
REMARK  183  A    between atoms: _443  and  _446
REMARK  184  A    between atoms: _449  and  _451
REMARK  185  A    between atoms: _451  and  _452
REMARK  186  A    between atoms: _451  and  _454
REMARK  187  A    between atoms: _454  and  _455
REMARK  188  A    between atoms: _460  and  _462
REMARK  189  A    between atoms: _462  and  _463
REMARK  190  A    between atoms: _462  and  _465
REMARK  191  A    between atoms: _465  and  _466
REMARK  192  A    between atoms: _469  and  _471
REMARK  193  A    between atoms: _471  and  _472
REMARK  194  A    between atoms: _471  and  _474
REMARK  195  A    between atoms: _474  and  _475
REMARK  196  A    between atoms: _478  and  _480
REMARK  197  A    between atoms: _480  and  _481
REMARK  198  A    between atoms: _483  and  _485
REMARK  199  A    between atoms: _485  and  _486
REMARK  200  A    between atoms: _485  and  _488
REMARK  201  A    between atoms: _488  and  _489
REMARK  202  A    between atoms: _489  and  _490
REMARK  203  A    between atoms: _490  and  _491
REMARK                            x       y       z     vdW  Elec       q    Type
REMARK                         _______ _______ _______ _____ _____    ______ ____
ROOT
ATOM      1  O   HOH     1      -0.772  11.532  30.435  0.00  0.00    +0.000 OA
ENDROOT
TORSDOF 0
REMARK  Name = ../refined-set-2016/1hbv/1hbv_pocket.pdb
REMARK  203 active torsions:
REMARK  status: ('A' for Active; 'I' for Inactive)
REMARK    1  A    between atoms: _1  and  _3
REMARK    2  A    between atoms: _3  and  _4
REMARK    3  A    between atoms: _3  and  _6
REMARK    4  A    between atoms: _6  and  _7
REMARK    5  A    between atoms: _7  and  _8
REMARK    6  A    between atoms: _8  and  _9
REMARK    7  A    between atoms: _18  and  _20
REMARK    8  A    between atoms: _20  and  _21
REMARK    9  A    between atoms: _20  and  _23
REMARK   10  A    between atoms: _23  and  _24
REMARK   11  A    between atoms: _27  and  _29
REMARK   12  A    between atoms: _29  and  _30
REMARK   13  A    between atoms: _29  and  _32
REMARK   14  A    between atoms: _32  and  _33
REMARK   15  A    between atoms: _36  and  _38
REMARK   16  A    between atoms: _38  and  _39
REMARK   17  A    between atoms: _38  and  _41
REMARK   18  A    between atoms: _41  and  _42
REMARK   19  A    between atoms: _45  and  _47
REMARK   20  A    between atoms: _47  and  _48
REMARK   21  A    between atoms: _50  and  _52
REMARK   22  A    between atoms: _52  and  _53
REMARK   23  A    between atoms: _56  and  _58
REMARK   24  A    between atoms: _58  and  _59
REMARK   25  A    between atoms: _58  and  _61
REMARK   26  A    between atoms: _61  and  _62
REMARK   27  A    between atoms: _65  and  _67
REMARK   28  A    between atoms: _67  and  _68
REMARK   29  A    between atoms: _67  and  _70
REMARK   30  A    between atoms: _70  and  _71
REMARK   31  A    between atoms: _74  and  _76
REMARK   32  A    between atoms: _76  and  _77
REMARK   33  A    between atoms: _76  and  _79
REMARK   34  A    between atoms: _79  and  _80
REMARK   35  A    between atoms: _83  and  _85
REMARK   36  A    between atoms: _85  and  _86
REMARK   37  A    between atoms: _85  and  _88
REMARK   38  A    between atoms: _91  and  _93
REMARK   39  A    between atoms: _93  and  _94
REMARK   40  A    between atoms: _93  and  _96
REMARK   41  A    between atoms: _96  and  _97
REMARK   42  A    between atoms: _97  and  _98
REMARK   43  A    between atoms: _100  and  _102
REMARK   44  A    between atoms: _102  and  _103
REMARK   45  A    between atoms: _102  and  _105
REMARK   46  A    between atoms: _105  and  _106
REMARK   47  A    between atoms: _109  and  _111
REMARK   48  A    between atoms: _111  and  _112
REMARK   49  A    between atoms: _114  and  _116
REMARK   50  A    between atoms: _116  and  _117
REMARK   51  A    between atoms: _119  and  _121
REMARK   52  A    between atoms: _121  and  _122
REMARK   53  A    between atoms: _121  and  _124
REMARK   54  A    between atoms: _124  and  _125
REMARK   55  A    between atoms: _128  and  _130
REMARK   56  A    between atoms: _130  and  _131
REMARK   57  A    between atoms: _133  and  _135
REMARK   58  A    between atoms: _135  and  _136
REMARK   59  A    between atoms: _138  and  _140
REMARK   60  A    between atoms: _140  and  _141
REMARK   61  A    between atoms: _140  and  _143
REMARK   62  A    between atoms: _143  and  _144
REMARK   63  A    between atoms: _147  and  _149
REMARK   64  A    between atoms: _149  and  _150
REMARK   65  A    between atoms: _149  and  _152
REMARK   66  A    between atoms: _155  and  _157
REMARK   67  A    between atoms: _157  and  _158
REMARK   68  A    between atoms: _157  and  _160
REMARK   69  A    between atoms: _160  and  _161
REMARK   70  A    between atoms: _165  and  _166
REMARK   71  A    between atoms: _171  and  _173
REMARK   72  A    between atoms: _173  and  _174
REMARK   73  A    between atoms: _173  and  _176
REMARK   74  A    between atoms: _176  and  _177
REMARK   75  A    between atoms: _181  and  _182
REMARK   76  A    between atoms: _187  and  _189
REMARK   77  A    between atoms: _189  and  _190
REMARK   78  A    between atoms: _189  and  _192
REMARK   79  A    between atoms: _195  and  _197
REMARK   80  A    between atoms: _197  and  _198
REMARK   81  A    between atoms: _197  and  _200
REMARK   82  A    between atoms: _200  and  _201
REMARK   83  A    between atoms: _206  and  _208
REMARK   84  A    between atoms: _208  and  _209
REMARK   85  A    between atoms: _208  and  _211
REMARK   86  A    between atoms: _211  and  _212
REMARK   87  A    between atoms: _215  and  _217
REMARK   88  A    between atoms: _217  and  _218
REMARK   89  A    between atoms: _217  and  _220
REMARK   90  A    between atoms: _220  and  _221
REMARK   91  A    between atoms: _224  and  _226
REMARK   92  A    between atoms: _226  and  _227
REMARK   93  A    between atoms: _229  and  _231
REMARK   94  A    between atoms: _231  and  _232
REMARK   95  A    between atoms: _231  and  _234
REMARK   96  A    between atoms: _234  and  _235
REMARK   97  A    between atoms: _235  and  _236
REMARK   98  A    between atoms: _236  and  _237
REMARK   99  A    between atoms: _246  and  _248
REMARK  100  A    between atoms: _248  and  _249
REMARK  101  A    between atoms: _248  and  _251
REMARK  102  A    between atoms: _251  and  _252
REMARK  103  A    between atoms: _257  and  _259
REMARK  104  A    between atoms: _259  and  _260
REMARK  105  A    between atoms: _259  and  _262
REMARK  106  A    between atoms: _262  and  _263
REMARK  107  A    between atoms: _263  and  _264
REMARK  108  A    between atoms: _264  and  _265
REMARK  109  A    between atoms: _274  and  _276
REMARK  110  A    between atoms: _276  and  _277
REMARK  111  A    between atoms: _276  and  _279
REMARK  112  A    between atoms: _279  and  _280
REMARK  113  A    between atoms: _283  and  _285
REMARK  114  A    between atoms: _285  and  _286
REMARK  115  A    between atoms: _285  and  _288
REMARK  116  A    between atoms: _288  and  _289
REMARK  117  A    between atoms: _292  and  _294
REMARK  118  A    between atoms: _294  and  _295
REMARK  119  A    between atoms: _294  and  _297
REMARK  120  A    between atoms: _297  and  _298
REMARK  121  A    between atoms: _301  and  _303
REMARK  122  A    between atoms: _303  and  _304
REMARK  123  A    between atoms: _303  and  _306
REMARK  124  A    between atoms: _306  and  _307
REMARK  125  A    between atoms: _310  and  _312
REMARK  126  A    between atoms: _312  and  _313
REMARK  127  A    between atoms: _315  and  _317
REMARK  128  A    between atoms: _317  and  _318
REMARK  129  A    between atoms: _321  and  _323
REMARK  130  A    between atoms: _323  and  _324
REMARK  131  A    between atoms: _323  and  _326
REMARK  132  A    between atoms: _326  and  _327
REMARK  133  A    between atoms: _330  and  _332
REMARK  134  A    between atoms: _332  and  _333
REMARK  135  A    between atoms: _332  and  _335
REMARK  136  A    between atoms: _335  and  _336
REMARK  137  A    between atoms: _339  and  _341
REMARK  138  A    between atoms: _341  and  _342
REMARK  139  A    between atoms: _341  and  _344
REMARK  140  A    between atoms: _344  and  _345
REMARK  141  A    between atoms: _348  and  _350
REMARK  142  A    between atoms: _350  and  _351
REMARK  143  A    between atoms: _350  and  _353
REMARK  144  A    between atoms: _356  and  _358
REMARK  145  A    between atoms: _358  and  _359
REMARK  146  A    between atoms: _358  and  _361
REMARK  147  A    between atoms: _361  and  _362
REMARK  148  A    between atoms: _362  and  _363
REMARK  149  A    between atoms: _363  and  _364
REMARK  150  A    between atoms: _364  and  _365
REMARK  151  A    between atoms: _369  and  _371
REMARK  152  A    between atoms: _371  and  _372
REMARK  153  A    between atoms: _371  and  _374
REMARK  154  A    between atoms: _374  and  _375
REMARK  155  A    between atoms: _375  and  _376
REMARK  156  A    between atoms: _378  and  _380
REMARK  157  A    between atoms: _380  and  _381
REMARK  158  A    between atoms: _380  and  _383
REMARK  159  A    between atoms: _383  and  _384
REMARK  160  A    between atoms: _387  and  _389
REMARK  161  A    between atoms: _389  and  _390
REMARK  162  A    between atoms: _392  and  _394
REMARK  163  A    between atoms: _394  and  _395
REMARK  164  A    between atoms: _397  and  _399
REMARK  165  A    between atoms: _399  and  _400
REMARK  166  A    between atoms: _399  and  _402
REMARK  167  A    between atoms: _402  and  _403
REMARK  168  A    between atoms: _406  and  _408
REMARK  169  A    between atoms: _408  and  _409
REMARK  170  A    between atoms: _411  and  _413
REMARK  171  A    between atoms: _413  and  _414
REMARK  172  A    between atoms: _416  and  _418
REMARK  173  A    between atoms: _418  and  _419
REMARK  174  A    between atoms: _418  and  _421
REMARK  175  A    between atoms: _421  and  _422
REMARK  176  A    between atoms: _425  and  _427
REMARK  177  A    between atoms: _427  and  _428
REMARK  178  A    between atoms: _427  and  _430
REMARK  179  A    between atoms: _430  and  _431
REMARK  180  A    between atoms: _435  and  _436
REMARK  181  A    between atoms: _441  and  _443
REMARK  182  A    between atoms: _443  and  _444
REMARK  183  A    between atoms: _443  and  _446
REMARK  184  A    between atoms: _449  and  _451
REMARK  185  A    between atoms: _451  and  _452
REMARK  186  A    between atoms: _451  and  _454
REMARK  187  A    between atoms: _454  and  _455
REMARK  188  A    between atoms: _460  and  _462
REMARK  189  A    between atoms: _462  and  _463
REMARK  190  A    between atoms: _462  and  _465
REMARK  191  A    between atoms: _465  and  _466
REMARK  192  A    between atoms: _469  and  _471
REMARK  193  A    between atoms: _471  and  _472
REMARK  194  A    between atoms: _471  and  _474
REMARK  195  A    between atoms: _474  and  _475
REMARK  196  A    between atoms: _478  and  _480
REMARK  197  A    between atoms: _480  and  _481
REMARK  198  A    between atoms: _483  and  _485
REMARK  199  A    between atoms: _485  and  _486
REMARK  200  A    between atoms: _485  and  _488
REMARK  201  A    between atoms: _488  and  _489
REMARK  202  A    between atoms: _489  and  _490
REMARK  203  A    between atoms: _490  and  _491
REMARK                            x       y       z     vdW  Elec       q    Type
REMARK                         _______ _______ _______ _____ _____    ______ ____
ROOT
ATOM      1  O   HOH     1      -9.604  24.209  15.909  0.00  0.00    +0.000 OA
ENDROOT
TORSDOF 0
REMARK  Name = ../refined-set-2016/1hbv/1hbv_pocket.pdb
REMARK  203 active torsions:
REMARK  status: ('A' for Active; 'I' for Inactive)
REMARK    1  A    between atoms: _1  and  _3
REMARK    2  A    between atoms: _3  and  _4
REMARK    3  A    between atoms: _3  and  _6
REMARK    4  A    between atoms: _6  and  _7
REMARK    5  A    between atoms: _7  and  _8
REMARK    6  A    between atoms: _8  and  _9
REMARK    7  A    between atoms: _18  and  _20
REMARK    8  A    between atoms: _20  and  _21
REMARK    9  A    between atoms: _20  and  _23
REMARK   10  A    between atoms: _23  and  _24
REMARK   11  A    between atoms: _27  and  _29
REMARK   12  A    between atoms: _29  and  _30
REMARK   13  A    between atoms: _29  and  _32
REMARK   14  A    between atoms: _32  and  _33
REMARK   15  A    between atoms: _36  and  _38
REMARK   16  A    between atoms: _38  and  _39
REMARK   17  A    between atoms: _38  and  _41
REMARK   18  A    between atoms: _41  and  _42
REMARK   19  A    between atoms: _45  and  _47
REMARK   20  A    between atoms: _47  and  _48
REMARK   21  A    between atoms: _50  and  _52
REMARK   22  A    between atoms: _52  and  _53
REMARK   23  A    between atoms: _56  and  _58
REMARK   24  A    between atoms: _58  and  _59
REMARK   25  A    between atoms: _58  and  _61
REMARK   26  A    between atoms: _61  and  _62
REMARK   27  A    between atoms: _65  and  _67
REMARK   28  A    between atoms: _67  and  _68
REMARK   29  A    between atoms: _67  and  _70
REMARK   30  A    between atoms: _70  and  _71
REMARK   31  A    between atoms: _74  and  _76
REMARK   32  A    between atoms: _76  and  _77
REMARK   33  A    between atoms: _76  and  _79
REMARK   34  A    between atoms: _79  and  _80
REMARK   35  A    between atoms: _83  and  _85
REMARK   36  A    between atoms: _85  and  _86
REMARK   37  A    between atoms: _85  and  _88
REMARK   38  A    between atoms: _91  and  _93
REMARK   39  A    between atoms: _93  and  _94
REMARK   40  A    between atoms: _93  and  _96
REMARK   41  A    between atoms: _96  and  _97
REMARK   42  A    between atoms: _97  and  _98
REMARK   43  A    between atoms: _100  and  _102
REMARK   44  A    between atoms: _102  and  _103
REMARK   45  A    between atoms: _102  and  _105
REMARK   46  A    between atoms: _105  and  _106
REMARK   47  A    between atoms: _109  and  _111
REMARK   48  A    between atoms: _111  and  _112
REMARK   49  A    between atoms: _114  and  _116
REMARK   50  A    between atoms: _116  and  _117
REMARK   51  A    between atoms: _119  and  _121
REMARK   52  A    between atoms: _121  and  _122
REMARK   53  A    between atoms: _121  and  _124
REMARK   54  A    between atoms: _124  and  _125
REMARK   55  A    between atoms: _128  and  _130
REMARK   56  A    between atoms: _130  and  _131
REMARK   57  A    between atoms: _133  and  _135
REMARK   58  A    between atoms: _135  and  _136
REMARK   59  A    between atoms: _138  and  _140
REMARK   60  A    between atoms: _140  and  _141
REMARK   61  A    between atoms: _140  and  _143
REMARK   62  A    between atoms: _143  and  _144
REMARK   63  A    between atoms: _147  and  _149
REMARK   64  A    between atoms: _149  and  _150
REMARK   65  A    between atoms: _149  and  _152
REMARK   66  A    between atoms: _155  and  _157
REMARK   67  A    between atoms: _157  and  _158
REMARK   68  A    between atoms: _157  and  _160
REMARK   69  A    between atoms: _160  and  _161
REMARK   70  A    between atoms: _165  and  _166
REMARK   71  A    between atoms: _171  and  _173
REMARK   72  A    between atoms: _173  and  _174
REMARK   73  A    between atoms: _173  and  _176
REMARK   74  A    between atoms: _176  and  _177
REMARK   75  A    between atoms: _181  and  _182
REMARK   76  A    between atoms: _187  and  _189
REMARK   77  A    between atoms: _189  and  _190
REMARK   78  A    between atoms: _189  and  _192
REMARK   79  A    between atoms: _195  and  _197
REMARK   80  A    between atoms: _197  and  _198
REMARK   81  A    between atoms: _197  and  _200
REMARK   82  A    between atoms: _200  and  _201
REMARK   83  A    between atoms: _206  and  _208
REMARK   84  A    between atoms: _208  and  _209
REMARK   85  A    between atoms: _208  and  _211
REMARK   86  A    between atoms: _211  and  _212
REMARK   87  A    between atoms: _215  and  _217
REMARK   88  A    between atoms: _217  and  _218
REMARK   89  A    between atoms: _217  and  _220
REMARK   90  A    between atoms: _220  and  _221
REMARK   91  A    between atoms: _224  and  _226
REMARK   92  A    between atoms: _226  and  _227
REMARK   93  A    between atoms: _229  and  _231
REMARK   94  A    between atoms: _231  and  _232
REMARK   95  A    between atoms: _231  and  _234
REMARK   96  A    between atoms: _234  and  _235
REMARK   97  A    between atoms: _235  and  _236
REMARK   98  A    between atoms: _236  and  _237
REMARK   99  A    between atoms: _246  and  _248
REMARK  100  A    between atoms: _248  and  _249
REMARK  101  A    between atoms: _248  and  _251
REMARK  102  A    between atoms: _251  and  _252
REMARK  103  A    between atoms: _257  and  _259
REMARK  104  A    between atoms: _259  and  _260
REMARK  105  A    between atoms: _259  and  _262
REMARK  106  A    between atoms: _262  and  _263
REMARK  107  A    between atoms: _263  and  _264
REMARK  108  A    between atoms: _264  and  _265
REMARK  109  A    between atoms: _274  and  _276
REMARK  110  A    between atoms: _276  and  _277
REMARK  111  A    between atoms: _276  and  _279
REMARK  112  A    between atoms: _279  and  _280
REMARK  113  A    between atoms: _283  and  _285
REMARK  114  A    between atoms: _285  and  _286
REMARK  115  A    between atoms: _285  and  _288
REMARK  116  A    between atoms: _288  and  _289
REMARK  117  A    between atoms: _292  and  _294
REMARK  118  A    between atoms: _294  and  _295
REMARK  119  A    between atoms: _294  and  _297
REMARK  120  A    between atoms: _297  and  _298
REMARK  121  A    between atoms: _301  and  _303
REMARK  122  A    between atoms: _303  and  _304
REMARK  123  A    between atoms: _303  and  _306
REMARK  124  A    between atoms: _306  and  _307
REMARK  125  A    between atoms: _310  and  _312
REMARK  126  A    between atoms: _312  and  _313
REMARK  127  A    between atoms: _315  and  _317
REMARK  128  A    between atoms: _317  and  _318
REMARK  129  A    between atoms: _321  and  _323
REMARK  130  A    between atoms: _323  and  _324
REMARK  131  A    between atoms: _323  and  _326
REMARK  132  A    between atoms: _326  and  _327
REMARK  133  A    between atoms: _330  and  _332
REMARK  134  A    between atoms: _332  and  _333
REMARK  135  A    between atoms: _332  and  _335
REMARK  136  A    between atoms: _335  and  _336
REMARK  137  A    between atoms: _339  and  _341
REMARK  138  A    between atoms: _341  and  _342
REMARK  139  A    between atoms: _341  and  _344
REMARK  140  A    between atoms: _344  and  _345
REMARK  141  A    between atoms: _348  and  _350
REMARK  142  A    between atoms: _350  and  _351
REMARK  143  A    between atoms: _350  and  _353
REMARK  144  A    between atoms: _356  and  _358
REMARK  145  A    between atoms: _358  and  _359
REMARK  146  A    between atoms: _358  and  _361
REMARK  147  A    between atoms: _361  and  _362
REMARK  148  A    between atoms: _362  and  _363
REMARK  149  A    between atoms: _363  and  _364
REMARK  150  A    between atoms: _364  and  _365
REMARK  151  A    between atoms: _369  and  _371
REMARK  152  A    between atoms: _371  and  _372
REMARK  153  A    between atoms: _371  and  _374
REMARK  154  A    between atoms: _374  and  _375
REMARK  155  A    between atoms: _375  and  _376
REMARK  156  A    between atoms: _378  and  _380
REMARK  157  A    between atoms: _380  and  _381
REMARK  158  A    between atoms: _380  and  _383
REMARK  159  A    between atoms: _383  and  _384
REMARK  160  A    between atoms: _387  and  _389
REMARK  161  A    between atoms: _389  and  _390
REMARK  162  A    between atoms: _392  and  _394
REMARK  163  A    between atoms: _394  and  _395
REMARK  164  A    between atoms: _397  and  _399
REMARK  165  A    between atoms: _399  and  _400
REMARK  166  A    between atoms: _399  and  _402
REMARK  167  A    between atoms: _402  and  _403
REMARK  168  A    between atoms: _406  and  _408
REMARK  169  A    between atoms: _408  and  _409
REMARK  170  A    between atoms: _411  and  _413
REMARK  171  A    between atoms: _413  and  _414
REMARK  172  A    between atoms: _416  and  _418
REMARK  173  A    between atoms: _418  and  _419
REMARK  174  A    between atoms: _418  and  _421
REMARK  175  A    between atoms: _421  and  _422
REMARK  176  A    between atoms: _425  and  _427
REMARK  177  A    between atoms: _427  and  _428
REMARK  178  A    between atoms: _427  and  _430
REMARK  179  A    between atoms: _430  and  _431
REMARK  180  A    between atoms: _435  and  _436
REMARK  181  A    between atoms: _441  and  _443
REMARK  182  A    between atoms: _443  and  _444
REMARK  183  A    between atoms: _443  and  _446
REMARK  184  A    between atoms: _449  and  _451
REMARK  185  A    between atoms: _451  and  _452
REMARK  186  A    between atoms: _451  and  _454
REMARK  187  A    between atoms: _454  and  _455
REMARK  188  A    between atoms: _460  and  _462
REMARK  189  A    between atoms: _462  and  _463
REMARK  190  A    between atoms: _462  and  _465
REMARK  191  A    between atoms: _465  and  _466
REMARK  192  A    between atoms: _469  and  _471
REMARK  193  A    between atoms: _471  and  _472
REMARK  194  A    between atoms: _471  and  _474
REMARK  195  A    between atoms: _474  and  _475
REMARK  196  A    between atoms: _478  and  _480
REMARK  197  A    between atoms: _480  and  _481
REMARK  198  A    between atoms: _483  and  _485
REMARK  199  A    between atoms: _485  and  _486
REMARK  200  A    between atoms: _485  and  _488
REMARK  201  A    between atoms: _488  and  _489
REMARK  202  A    between atoms: _489  and  _490
REMARK  203  A    between atoms: _490  and  _491
REMARK                            x       y       z     vdW  Elec       q    Type
REMARK                         _______ _______ _______ _____ _____    ______ ____
ROOT
ATOM      1  O   HOH     1     -10.197  17.900  13.430  0.00  0.00    +0.000 OA
ENDROOT
TORSDOF 0
