REMARK  Name = ../refined-set-2016/1kc7/1kc7_pocket.pdb
REMARK  150 active torsions:
REMARK  status: ('A' for Active; 'I' for Inactive)
REMARK    1  A    between atoms: _1  and  _3
REMARK    2  A    between atoms: _3  and  _4
REMARK    3  A    between atoms: _3  and  _6
REMARK    4  A    between atoms: _6  and  _7
REMARK    5  A    between atoms: _12  and  _14
REMARK    6  A    between atoms: _14  and  _15
REMARK    7  A    between atoms: _14  and  _17
REMARK    8  A    between atoms: _17  and  _18
REMARK    9  A    between atoms: _21  and  _23
REMARK   10  A    between atoms: _23  and  _24
REMARK   11  A    between atoms: _26  and  _28
REMARK   12  A    between atoms: _28  and  _29
REMARK   13  A    between atoms: _28  and  _31
REMARK   14  A    between atoms: _31  and  _32
REMARK   15  A    between atoms: _35  and  _37
REMARK   16  A    between atoms: _37  and  _38
REMARK   17  A    between atoms: _37  and  _40
REMARK   18  A    between atoms: _42  and  _44
REMARK   19  A    between atoms: _44  and  _45
REMARK   20  A    between atoms: _44  and  _47
REMARK   21  A    between atoms: _47  and  _48
REMARK   22  A    between atoms: _48  and  _49
REMARK   23  A    between atoms: _49  and  _50
REMARK   24  A    between atoms: _59  and  _61
REMARK   25  A    between atoms: _61  and  _62
REMARK   26  A    between atoms: _61  and  _64
REMARK   27  A    between atoms: _64  and  _65
REMARK   28  A    between atoms: _68  and  _70
REMARK   29  A    between atoms: _70  and  _71
REMARK   30  A    between atoms: _70  and  _73
REMARK   31  A    between atoms: _73  and  _74
REMARK   32  A    between atoms: _74  and  _75
REMARK   33  A    between atoms: _78  and  _80
REMARK   34  A    between atoms: _80  and  _81
REMARK   35  A    between atoms: _80  and  _83
REMARK   36  A    between atoms: _83  and  _84
REMARK   37  A    between atoms: _84  and  _85
REMARK   38  A    between atoms: _85  and  _86
REMARK   39  A    between atoms: _95  and  _97
REMARK   40  A    between atoms: _97  and  _98
REMARK   41  A    between atoms: _97  and  _100
REMARK   42  A    between atoms: _100  and  _101
REMARK   43  A    between atoms: _104  and  _106
REMARK   44  A    between atoms: _106  and  _107
REMARK   45  A    between atoms: _106  and  _109
REMARK   46  A    between atoms: _109  and  _110
REMARK   47  A    between atoms: _110  and  _111
REMARK   48  A    between atoms: _111  and  _112
REMARK   49  A    between atoms: _121  and  _123
REMARK   50  A    between atoms: _123  and  _124
REMARK   51  A    between atoms: _123  and  _126
REMARK   52  A    between atoms: _126  and  _127
REMARK   53  A    between atoms: _127  and  _128
REMARK   54  A    between atoms: _131  and  _132
REMARK   55  A    between atoms: _137  and  _139
REMARK   56  A    between atoms: _139  and  _140
REMARK   57  A    between atoms: _139  and  _142
REMARK   58  A    between atoms: _142  and  _143
REMARK   59  A    between atoms: _146  and  _148
REMARK   60  A    between atoms: _148  and  _149
REMARK   61  A    between atoms: _148  and  _151
REMARK   62  A    between atoms: _151  and  _152
REMARK   63  A    between atoms: _152  and  _153
REMARK   64  A    between atoms: _155  and  _157
REMARK   65  A    between atoms: _157  and  _158
REMARK   66  A    between atoms: _157  and  _160
REMARK   67  A    between atoms: _160  and  _161
REMARK   68  A    between atoms: _164  and  _166
REMARK   69  A    between atoms: _166  and  _167
REMARK   70  A    between atoms: _166  and  _169
REMARK   71  A    between atoms: _169  and  _170
REMARK   72  A    between atoms: _170  and  _171
REMARK   73  A    between atoms: _171  and  _172
REMARK   74  A    between atoms: _172  and  MG_348
REMARK   75  A    between atoms: _174  and  _176
REMARK   76  A    between atoms: _176  and  _177
REMARK   77  A    between atoms: _176  and  _179
REMARK   78  A    between atoms: _179  and  _180
REMARK   79  A    between atoms: _183  and  _185
REMARK   80  A    between atoms: _185  and  _186
REMARK   81  A    between atoms: _185  and  _188
REMARK   82  A    between atoms: _188  and  _189
REMARK   83  A    between atoms: _191  and  _193
REMARK   84  A    between atoms: _193  and  _194
REMARK   85  A    between atoms: _193  and  _196
REMARK   86  A    between atoms: _196  and  _197
REMARK   87  A    between atoms: _203  and  _205
REMARK   88  A    between atoms: _205  and  _206
REMARK   89  A    between atoms: _208  and  _210
REMARK   90  A    between atoms: _210  and  _211
REMARK   91  A    between atoms: _210  and  _213
REMARK   92  A    between atoms: _213  and  _214
REMARK   93  A    between atoms: _217  and  _219
REMARK   94  A    between atoms: _219  and  _220
REMARK   95  A    between atoms: _219  and  _222
REMARK   96  A    between atoms: _222  and  _223
REMARK   97  A    between atoms: _228  and  _230
REMARK   98  A    between atoms: _230  and  _231
REMARK   99  A    between atoms: _230  and  _233
REMARK  100  A    between atoms: _233  and  _234
REMARK  101  A    between atoms: _234  and  _236
REMARK  102  A    between atoms: _236  and  MG_348
REMARK  103  A    between atoms: _237  and  _239
REMARK  104  A    between atoms: _239  and  _240
REMARK  105  A    between atoms: _239  and  _242
REMARK  106  A    between atoms: _242  and  _243
REMARK  107  A    between atoms: _246  and  _248
REMARK  108  A    between atoms: _248  and  _249
REMARK  109  A    between atoms: _248  and  _251
REMARK  110  A    between atoms: _251  and  _252
REMARK  111  A    between atoms: _255  and  _257
REMARK  112  A    between atoms: _257  and  _258
REMARK  113  A    between atoms: _257  and  _260
REMARK  114  A    between atoms: _260  and  _261
REMARK  115  A    between atoms: _261  and  _262
REMARK  116  A    between atoms: _267  and  _269
REMARK  117  A    between atoms: _269  and  _270
REMARK  118  A    between atoms: _269  and  _272
REMARK  119  A    between atoms: _272  and  _273
REMARK  120  A    between atoms: _273  and  _274
REMARK  121  A    between atoms: _276  and  _278
REMARK  122  A    between atoms: _278  and  _279
REMARK  123  A    between atoms: _278  and  _281
REMARK  124  A    between atoms: _281  and  _282
REMARK  125  A    between atoms: _282  and  _283
REMARK  126  A    between atoms: _283  and  _284
REMARK  127  A    between atoms: _293  and  _295
REMARK  128  A    between atoms: _295  and  _296
REMARK  129  A    between atoms: _295  and  _298
REMARK  130  A    between atoms: _298  and  _299
REMARK  131  A    between atoms: _302  and  _304
REMARK  132  A    between atoms: _304  and  _305
REMARK  133  A    between atoms: _304  and  _307
REMARK  134  A    between atoms: _309  and  _311
REMARK  135  A    between atoms: _311  and  _312
REMARK  136  A    between atoms: _314  and  _316
REMARK  137  A    between atoms: _316  and  _317
REMARK  138  A    between atoms: _316  and  _319
REMARK  139  A    between atoms: _319  and  _320
REMARK  140  A    between atoms: _320  and  _321
REMARK  141  A    between atoms: _324  and  _326
REMARK  142  A    between atoms: _326  and  _327
REMARK  143  A    between atoms: _326  and  _329
REMARK  144  A    between atoms: _329  and  _330
REMARK  145  A    between atoms: _335  and  _337
REMARK  146  A    between atoms: _337  and  _338
REMARK  147  A    between atoms: _340  and  _342
REMARK  148  A    between atoms: _342  and  _343
REMARK  149  A    between atoms: _342  and  _345
REMARK  150  A    between atoms: _345  and  _346
REMARK                            x       y       z     vdW  Elec       q    Type
REMARK                         _______ _______ _______ _____ _____    ______ ____
ROOT
ATOM      1  CB  ASN A   1      21.648   7.777   6.073  0.00  0.00    +0.110 C 
ENDROOT
BRANCH   1   2
ATOM      2  CG  ASN A   1      20.715   8.942   5.728  0.00  0.00    +0.221 C 
ATOM      3  OD1 ASN A   1      20.552   9.826   6.574  0.00  0.00    -0.275 OA
ATOM      4  ND2 ASN A   1      20.110   8.954   4.536  0.00  0.00    -0.329 N 
ATOM      5 HD21 ASN A   1      19.468   9.733   4.287  0.00  0.00    +0.145 HD
ATOM      6 HD22 ASN A   1      20.281   8.184   3.858  0.00  0.00    +0.145 HD
ENDBRANCH   1   2
BRANCH   1   7
ATOM      7  CA  ASN A   1      22.508   8.108   7.297  0.00  0.00    +0.142 C 
BRANCH   7   8
ATOM      8  N   ASN A   1      23.453   9.171   6.998  0.00  0.00    -0.239 NA
ATOM      9  H   ASN A   1      23.798   9.296   6.025  0.00  0.00    +0.142 HD
ENDBRANCH   7   8
BRANCH   7  10
ATOM     10  C   ASN A   1      23.432   6.963   7.677  0.00  0.00    +0.225 C 
ATOM     11  O   ASN A   1      24.043   6.355   6.814  0.00  0.00    -0.287 OA
ENDBRANCH   7  10
ENDBRANCH   1   7
TORSDOF 4
REMARK  Name = ../refined-set-2016/1kc7/1kc7_pocket.pdb
REMARK  150 active torsions:
REMARK  status: ('A' for Active; 'I' for Inactive)
REMARK    1  A    between atoms: _1  and  _3
REMARK    2  A    between atoms: _3  and  _4
REMARK    3  A    between atoms: _3  and  _6
REMARK    4  A    between atoms: _6  and  _7
REMARK    5  A    between atoms: _12  and  _14
REMARK    6  A    between atoms: _14  and  _15
REMARK    7  A    between atoms: _14  and  _17
REMARK    8  A    between atoms: _17  and  _18
REMARK    9  A    between atoms: _21  and  _23
REMARK   10  A    between atoms: _23  and  _24
REMARK   11  A    between atoms: _26  and  _28
REMARK   12  A    between atoms: _28  and  _29
REMARK   13  A    between atoms: _28  and  _31
REMARK   14  A    between atoms: _31  and  _32
REMARK   15  A    between atoms: _35  and  _37
REMARK   16  A    between atoms: _37  and  _38
REMARK   17  A    between atoms: _37  and  _40
REMARK   18  A    between atoms: _42  and  _44
REMARK   19  A    between atoms: _44  and  _45
REMARK   20  A    between atoms: _44  and  _47
REMARK   21  A    between atoms: _47  and  _48
REMARK   22  A    between atoms: _48  and  _49
REMARK   23  A    between atoms: _49  and  _50
REMARK   24  A    between atoms: _59  and  _61
REMARK   25  A    between atoms: _61  and  _62
REMARK   26  A    between atoms: _61  and  _64
REMARK   27  A    between atoms: _64  and  _65
REMARK   28  A    between atoms: _68  and  _70
REMARK   29  A    between atoms: _70  and  _71
REMARK   30  A    between atoms: _70  and  _73
REMARK   31  A    between atoms: _73  and  _74
REMARK   32  A    between atoms: _74  and  _75
REMARK   33  A    between atoms: _78  and  _80
REMARK   34  A    between atoms: _80  and  _81
REMARK   35  A    between atoms: _80  and  _83
REMARK   36  A    between atoms: _83  and  _84
REMARK   37  A    between atoms: _84  and  _85
REMARK   38  A    between atoms: _85  and  _86
REMARK   39  A    between atoms: _95  and  _97
REMARK   40  A    between atoms: _97  and  _98
REMARK   41  A    between atoms: _97  and  _100
REMARK   42  A    between atoms: _100  and  _101
REMARK   43  A    between atoms: _104  and  _106
REMARK   44  A    between atoms: _106  and  _107
REMARK   45  A    between atoms: _106  and  _109
REMARK   46  A    between atoms: _109  and  _110
REMARK   47  A    between atoms: _110  and  _111
REMARK   48  A    between atoms: _111  and  _112
REMARK   49  A    between atoms: _121  and  _123
REMARK   50  A    between atoms: _123  and  _124
REMARK   51  A    between atoms: _123  and  _126
REMARK   52  A    between atoms: _126  and  _127
REMARK   53  A    between atoms: _127  and  _128
REMARK   54  A    between atoms: _131  and  _132
REMARK   55  A    between atoms: _137  and  _139
REMARK   56  A    between atoms: _139  and  _140
REMARK   57  A    between atoms: _139  and  _142
REMARK   58  A    between atoms: _142  and  _143
REMARK   59  A    between atoms: _146  and  _148
REMARK   60  A    between atoms: _148  and  _149
REMARK   61  A    between atoms: _148  and  _151
REMARK   62  A    between atoms: _151  and  _152
REMARK   63  A    between atoms: _152  and  _153
REMARK   64  A    between atoms: _155  and  _157
REMARK   65  A    between atoms: _157  and  _158
REMARK   66  A    between atoms: _157  and  _160
REMARK   67  A    between atoms: _160  and  _161
REMARK   68  A    between atoms: _164  and  _166
REMARK   69  A    between atoms: _166  and  _167
REMARK   70  A    between atoms: _166  and  _169
REMARK   71  A    between atoms: _169  and  _170
REMARK   72  A    between atoms: _170  and  _171
REMARK   73  A    between atoms: _171  and  _172
REMARK   74  A    between atoms: _172  and  MG_348
REMARK   75  A    between atoms: _174  and  _176
REMARK   76  A    between atoms: _176  and  _177
REMARK   77  A    between atoms: _176  and  _179
REMARK   78  A    between atoms: _179  and  _180
REMARK   79  A    between atoms: _183  and  _185
REMARK   80  A    between atoms: _185  and  _186
REMARK   81  A    between atoms: _185  and  _188
REMARK   82  A    between atoms: _188  and  _189
REMARK   83  A    between atoms: _191  and  _193
REMARK   84  A    between atoms: _193  and  _194
REMARK   85  A    between atoms: _193  and  _196
REMARK   86  A    between atoms: _196  and  _197
REMARK   87  A    between atoms: _203  and  _205
REMARK   88  A    between atoms: _205  and  _206
REMARK   89  A    between atoms: _208  and  _210
REMARK   90  A    between atoms: _210  and  _211
REMARK   91  A    between atoms: _210  and  _213
REMARK   92  A    between atoms: _213  and  _214
REMARK   93  A    between atoms: _217  and  _219
REMARK   94  A    between atoms: _219  and  _220
REMARK   95  A    between atoms: _219  and  _222
REMARK   96  A    between atoms: _222  and  _223
REMARK   97  A    between atoms: _228  and  _230
REMARK   98  A    between atoms: _230  and  _231
REMARK   99  A    between atoms: _230  and  _233
REMARK  100  A    between atoms: _233  and  _234
REMARK  101  A    between atoms: _234  and  _236
REMARK  102  A    between atoms: _236  and  MG_348
REMARK  103  A    between atoms: _237  and  _239
REMARK  104  A    between atoms: _239  and  _240
REMARK  105  A    between atoms: _239  and  _242
REMARK  106  A    between atoms: _242  and  _243
REMARK  107  A    between atoms: _246  and  _248
REMARK  108  A    between atoms: _248  and  _249
REMARK  109  A    between atoms: _248  and  _251
REMARK  110  A    between atoms: _251  and  _252
REMARK  111  A    between atoms: _255  and  _257
REMARK  112  A    between atoms: _257  and  _258
REMARK  113  A    between atoms: _257  and  _260
REMARK  114  A    between atoms: _260  and  _261
REMARK  115  A    between atoms: _261  and  _262
REMARK  116  A    between atoms: _267  and  _269
REMARK  117  A    between atoms: _269  and  _270
REMARK  118  A    between atoms: _269  and  _272
REMARK  119  A    between atoms: _272  and  _273
REMARK  120  A    between atoms: _273  and  _274
REMARK  121  A    between atoms: _276  and  _278
REMARK  122  A    between atoms: _278  and  _279
REMARK  123  A    between atoms: _278  and  _281
REMARK  124  A    between atoms: _281  and  _282
REMARK  125  A    between atoms: _282  and  _283
REMARK  126  A    between atoms: _283  and  _284
REMARK  127  A    between atoms: _293  and  _295
REMARK  128  A    between atoms: _295  and  _296
REMARK  129  A    between atoms: _295  and  _298
REMARK  130  A    between atoms: _298  and  _299
REMARK  131  A    between atoms: _302  and  _304
REMARK  132  A    between atoms: _304  and  _305
REMARK  133  A    between atoms: _304  and  _307
REMARK  134  A    between atoms: _309  and  _311
REMARK  135  A    between atoms: _311  and  _312
REMARK  136  A    between atoms: _314  and  _316
REMARK  137  A    between atoms: _316  and  _317
REMARK  138  A    between atoms: _316  and  _319
REMARK  139  A    between atoms: _319  and  _320
REMARK  140  A    between atoms: _320  and  _321
REMARK  141  A    between atoms: _324  and  _326
REMARK  142  A    between atoms: _326  and  _327
REMARK  143  A    between atoms: _326  and  _329
REMARK  144  A    between atoms: _329  and  _330
REMARK  145  A    between atoms: _335  and  _337
REMARK  146  A    between atoms: _337  and  _338
REMARK  147  A    between atoms: _340  and  _342
REMARK  148  A    between atoms: _342  and  _343
REMARK  149  A    between atoms: _342  and  _345
REMARK  150  A    between atoms: _345  and  _346
REMARK                            x       y       z     vdW  Elec       q    Type
REMARK                         _______ _______ _______ _____ _____    ______ ____
ROOT
ATOM      1  CA  ASP A   1      23.186   2.722  11.479  0.00  0.00    +0.144 C 
ENDROOT
BRANCH   1   2
ATOM      2  N   ASP A   1      23.749   3.584  10.458  0.00  0.00    -0.239 NA
ATOM      3  H   ASP A   1      24.090   3.153   9.575  0.00  0.00    +0.142 HD
ENDBRANCH   1   2
BRANCH   1   4
ATOM      4  C   ASP A   1      24.207   2.031  12.389  0.00  0.00    +0.225 C 
ATOM      5  O   ASP A   1      23.826   1.427  13.407  0.00  0.00    -0.287 OA
ENDBRANCH   1   4
BRANCH   1   6
ATOM      6  CB  ASP A   1      22.308   1.659  10.806  0.00  0.00    +0.139 C 
BRANCH   6   7
ATOM      7  CG  ASP A   1      21.210   2.276   9.899  0.00  0.00    +0.367 C 
ATOM      8  OD2 ASP A   1      20.919   3.508   9.927  0.00  0.00    -0.246 OA
ATOM      9  OD1 ASP A   1      20.619   1.501   9.146  0.00  0.00    -0.246 OA
ENDBRANCH   6   7
ENDBRANCH   1   6
TORSDOF 4
REMARK  Name = ../refined-set-2016/1kc7/1kc7_pocket.pdb
REMARK  150 active torsions:
REMARK  status: ('A' for Active; 'I' for Inactive)
REMARK    1  A    between atoms: _1  and  _3
REMARK    2  A    between atoms: _3  and  _4
REMARK    3  A    between atoms: _3  and  _6
REMARK    4  A    between atoms: _6  and  _7
REMARK    5  A    between atoms: _12  and  _14
REMARK    6  A    between atoms: _14  and  _15
REMARK    7  A    between atoms: _14  and  _17
REMARK    8  A    between atoms: _17  and  _18
REMARK    9  A    between atoms: _21  and  _23
REMARK   10  A    between atoms: _23  and  _24
REMARK   11  A    between atoms: _26  and  _28
REMARK   12  A    between atoms: _28  and  _29
REMARK   13  A    between atoms: _28  and  _31
REMARK   14  A    between atoms: _31  and  _32
REMARK   15  A    between atoms: _35  and  _37
REMARK   16  A    between atoms: _37  and  _38
REMARK   17  A    between atoms: _37  and  _40
REMARK   18  A    between atoms: _42  and  _44
REMARK   19  A    between atoms: _44  and  _45
REMARK   20  A    between atoms: _44  and  _47
REMARK   21  A    between atoms: _47  and  _48
REMARK   22  A    between atoms: _48  and  _49
REMARK   23  A    between atoms: _49  and  _50
REMARK   24  A    between atoms: _59  and  _61
REMARK   25  A    between atoms: _61  and  _62
REMARK   26  A    between atoms: _61  and  _64
REMARK   27  A    between atoms: _64  and  _65
REMARK   28  A    between atoms: _68  and  _70
REMARK   29  A    between atoms: _70  and  _71
REMARK   30  A    between atoms: _70  and  _73
REMARK   31  A    between atoms: _73  and  _74
REMARK   32  A    between atoms: _74  and  _75
REMARK   33  A    between atoms: _78  and  _80
REMARK   34  A    between atoms: _80  and  _81
REMARK   35  A    between atoms: _80  and  _83
REMARK   36  A    between atoms: _83  and  _84
REMARK   37  A    between atoms: _84  and  _85
REMARK   38  A    between atoms: _85  and  _86
REMARK   39  A    between atoms: _95  and  _97
REMARK   40  A    between atoms: _97  and  _98
REMARK   41  A    between atoms: _97  and  _100
REMARK   42  A    between atoms: _100  and  _101
REMARK   43  A    between atoms: _104  and  _106
REMARK   44  A    between atoms: _106  and  _107
REMARK   45  A    between atoms: _106  and  _109
REMARK   46  A    between atoms: _109  and  _110
REMARK   47  A    between atoms: _110  and  _111
REMARK   48  A    between atoms: _111  and  _112
REMARK   49  A    between atoms: _121  and  _123
REMARK   50  A    between atoms: _123  and  _124
REMARK   51  A    between atoms: _123  and  _126
REMARK   52  A    between atoms: _126  and  _127
REMARK   53  A    between atoms: _127  and  _128
REMARK   54  A    between atoms: _131  and  _132
REMARK   55  A    between atoms: _137  and  _139
REMARK   56  A    between atoms: _139  and  _140
REMARK   57  A    between atoms: _139  and  _142
REMARK   58  A    between atoms: _142  and  _143
REMARK   59  A    between atoms: _146  and  _148
REMARK   60  A    between atoms: _148  and  _149
REMARK   61  A    between atoms: _148  and  _151
REMARK   62  A    between atoms: _151  and  _152
REMARK   63  A    between atoms: _152  and  _153
REMARK   64  A    between atoms: _155  and  _157
REMARK   65  A    between atoms: _157  and  _158
REMARK   66  A    between atoms: _157  and  _160
REMARK   67  A    between atoms: _160  and  _161
REMARK   68  A    between atoms: _164  and  _166
REMARK   69  A    between atoms: _166  and  _167
REMARK   70  A    between atoms: _166  and  _169
REMARK   71  A    between atoms: _169  and  _170
REMARK   72  A    between atoms: _170  and  _171
REMARK   73  A    between atoms: _171  and  _172
REMARK   74  A    between atoms: _172  and  MG_348
REMARK   75  A    between atoms: _174  and  _176
REMARK   76  A    between atoms: _176  and  _177
REMARK   77  A    between atoms: _176  and  _179
REMARK   78  A    between atoms: _179  and  _180
REMARK   79  A    between atoms: _183  and  _185
REMARK   80  A    between atoms: _185  and  _186
REMARK   81  A    between atoms: _185  and  _188
REMARK   82  A    between atoms: _188  and  _189
REMARK   83  A    between atoms: _191  and  _193
REMARK   84  A    between atoms: _193  and  _194
REMARK   85  A    between atoms: _193  and  _196
REMARK   86  A    between atoms: _196  and  _197
REMARK   87  A    between atoms: _203  and  _205
REMARK   88  A    between atoms: _205  and  _206
REMARK   89  A    between atoms: _208  and  _210
REMARK   90  A    between atoms: _210  and  _211
REMARK   91  A    between atoms: _210  and  _213
REMARK   92  A    between atoms: _213  and  _214
REMARK   93  A    between atoms: _217  and  _219
REMARK   94  A    between atoms: _219  and  _220
REMARK   95  A    between atoms: _219  and  _222
REMARK   96  A    between atoms: _222  and  _223
REMARK   97  A    between atoms: _228  and  _230
REMARK   98  A    between atoms: _230  and  _231
REMARK   99  A    between atoms: _230  and  _233
REMARK  100  A    between atoms: _233  and  _234
REMARK  101  A    between atoms: _234  and  _236
REMARK  102  A    between atoms: _236  and  MG_348
REMARK  103  A    between atoms: _237  and  _239
REMARK  104  A    between atoms: _239  and  _240
REMARK  105  A    between atoms: _239  and  _242
REMARK  106  A    between atoms: _242  and  _243
REMARK  107  A    between atoms: _246  and  _248
REMARK  108  A    between atoms: _248  and  _249
REMARK  109  A    between atoms: _248  and  _251
REMARK  110  A    between atoms: _251  and  _252
REMARK  111  A    between atoms: _255  and  _257
REMARK  112  A    between atoms: _257  and  _258
REMARK  113  A    between atoms: _257  and  _260
REMARK  114  A    between atoms: _260  and  _261
REMARK  115  A    between atoms: _261  and  _262
REMARK  116  A    between atoms: _267  and  _269
REMARK  117  A    between atoms: _269  and  _270
REMARK  118  A    between atoms: _269  and  _272
REMARK  119  A    between atoms: _272  and  _273
REMARK  120  A    between atoms: _273  and  _274
REMARK  121  A    between atoms: _276  and  _278
REMARK  122  A    between atoms: _278  and  _279
REMARK  123  A    between atoms: _278  and  _281
REMARK  124  A    between atoms: _281  and  _282
REMARK  125  A    between atoms: _282  and  _283
REMARK  126  A    between atoms: _283  and  _284
REMARK  127  A    between atoms: _293  and  _295
REMARK  128  A    between atoms: _295  and  _296
REMARK  129  A    between atoms: _295  and  _298
REMARK  130  A    between atoms: _298  and  _299
REMARK  131  A    between atoms: _302  and  _304
REMARK  132  A    between atoms: _304  and  _305
REMARK  133  A    between atoms: _304  and  _307
REMARK  134  A    between atoms: _309  and  _311
REMARK  135  A    between atoms: _311  and  _312
REMARK  136  A    between atoms: _314  and  _316
REMARK  137  A    between atoms: _316  and  _317
REMARK  138  A    between atoms: _316  and  _319
REMARK  139  A    between atoms: _319  and  _320
REMARK  140  A    between atoms: _320  and  _321
REMARK  141  A    between atoms: _324  and  _326
REMARK  142  A    between atoms: _326  and  _327
REMARK  143  A    between atoms: _326  and  _329
REMARK  144  A    between atoms: _329  and  _330
REMARK  145  A    between atoms: _335  and  _337
REMARK  146  A    between atoms: _337  and  _338
REMARK  147  A    between atoms: _340  and  _342
REMARK  148  A    between atoms: _342  and  _343
REMARK  149  A    between atoms: _342  and  _345
REMARK  150  A    between atoms: _345  and  _346
REMARK                            x       y       z     vdW  Elec       q    Type
REMARK                         _______ _______ _______ _____ _____    ______ ____
ROOT
ATOM      1  CA  ARG A   4      17.562   3.412  11.857  0.00  0.00    +0.149 C 
ENDROOT
BRANCH   1   4
ATOM      2  C   CYS A   3      18.895   5.140  12.770  0.00  0.00    +0.242 C 
ATOM      3  O   CYS A   3      18.057   5.240  13.612  0.00  0.00    -0.273 OA
ATOM      4  N   ARG A   4      18.729   4.264  11.810  0.00  0.00    -0.297 N 
ATOM      5  H   ARG A   4      19.418   4.184  11.035  0.00  0.00    +0.150 HD
BRANCH   2   6
ATOM      6  CA  CYS A   3      20.149   6.088  12.743  0.00  0.00    +0.160 C 
BRANCH   6   8
ATOM      7  C   LEU A   2      19.973   7.819  11.003  0.00  0.00    +0.241 C 
ATOM      8  N   CYS A   3      19.634   7.331  12.194  0.00  0.00    -0.296 N 
ATOM      9  H   CYS A   3      18.958   7.874  12.768  0.00  0.00    +0.150 HD
ATOM     10  O   LEU A   2      20.815   7.336  10.264  0.00  0.00    -0.273 OA
BRANCH   7  11
ATOM     11  CA  LEU A   2      19.222   9.067  10.587  0.00  0.00    +0.149 C 
BRANCH  11  13
ATOM     12  C   GLY A   1      19.636  11.418  10.476  0.00  0.00    +0.240 C 
ATOM     13  N   LEU A   2      20.132  10.193  10.520  0.00  0.00    -0.297 N 
ATOM     14  H   LEU A   2      21.161  10.040  10.507  0.00  0.00    +0.150 HD
ATOM     15  O   GLY A   1      18.426  11.606  10.353  0.00  0.00    -0.274 OA
BRANCH  12  16
ATOM     16  CA  GLY A   1      20.640  12.573  10.508  0.00  0.00    +0.169 C 
BRANCH  16  17
ATOM     17  N   GLY A   1      22.016  12.160  10.785  0.00  0.00    -0.236 NA
ATOM     18  H   GLY A   1      22.631  11.894   9.990  0.00  0.00    +0.142 HD
ENDBRANCH  16  17
ENDBRANCH  12  16
ENDBRANCH  11  13
BRANCH  11  19
ATOM     19  CB  LEU A   2      18.484   8.794   9.277  0.00  0.00    +0.029 C 
BRANCH  19  20
ATOM     20  CG  LEU A   2      17.844   7.375   9.073  0.00  0.00    +0.002 C 
ATOM     21  CD2 LEU A   2      16.621   7.168  10.008  0.00  0.00    +0.000 C 
ATOM     22  CD1 LEU A   2      17.364   7.244   7.631  0.00  0.00    +0.000 C 
ENDBRANCH  19  20
ENDBRANCH  11  19
ENDBRANCH   7  11
ENDBRANCH   6   8
BRANCH   6  23
ATOM     23  CB  CYS A   3      20.685   6.304  14.163  0.00  0.00    +0.098 C 
ATOM     24  SG  CYS A   3      21.162   4.676  14.827  0.00  0.00    -0.080 S 
ENDBRANCH   6  23
ENDBRANCH   2   6
ENDBRANCH   1   4
BRANCH   1  25
ATOM     25  C   ARG A   4      17.713   2.491  13.037  0.00  0.00    +0.241 C 
ATOM     26  N   THR A   5      16.600   2.087  13.619  0.00  0.00    -0.295 N 
ATOM     27  H   THR A   5      15.680   2.417  13.264  0.00  0.00    +0.150 HD
ATOM     28  O   ARG A   4      18.813   2.165  13.414  0.00  0.00    -0.273 OA
BRANCH  26  29
ATOM     29  CA  THR A   5      16.656   1.183  14.754  0.00  0.00    +0.176 C 
BRANCH  29  30
ATOM     30  C   THR A   5      16.121  -0.222  14.497  0.00  0.00    +0.243 C 
ATOM     31  O   THR A   5      16.098  -1.013  15.403  0.00  0.00    -0.273 OA
ATOM     32  N   GLU A   6      15.670  -0.515  13.286  0.00  0.00    -0.298 N 
ATOM     33  H   GLU A   6      15.706   0.205  12.537  0.00  0.00    +0.150 HD
BRANCH  32  34
ATOM     34  CA  GLU A   6      15.123  -1.836  12.990  0.00  0.00    +0.137 C 
BRANCH  34  35
ATOM     35  C   GLU A   6      16.075  -3.025  13.247  0.00  0.00    +0.227 C 
ATOM     36  O   GLU A   6      15.668  -4.051  13.810  0.00  0.00    -0.286 OA
ENDBRANCH  34  35
BRANCH  34  37
ATOM     37  CB  GLU A   6      14.636  -1.889  11.533  0.00  0.00    +0.039 C 
BRANCH  37  38
ATOM     38  CG  GLU A   6      13.324  -1.187  11.273  0.00  0.00    +0.116 C 
BRANCH  38  39
ATOM     39  CD  GLU A   6      13.447   0.345  11.471  0.00  0.00    +0.365 C 
ATOM     40  OE2 GLU A   6      12.667   0.948  12.193  0.00  0.00    -0.246 OA
ATOM     41  OE1 GLU A   6      14.340   0.923  10.888  0.00  0.00    -0.246 OA
ENDBRANCH  38  39
ENDBRANCH  37  38
ENDBRANCH  34  37
ENDBRANCH  32  34
ENDBRANCH  29  30
BRANCH  29  42
ATOM     42  CB  THR A   5      15.866   1.708  15.920  0.00  0.00    +0.137 C 
ATOM     43  CG2 THR A   5      16.576   2.878  16.546  0.00  0.00    +0.034 C 
BRANCH  42  44
ATOM     44  OG1 THR A   5      14.534   2.012  15.474  0.00  0.00    -0.382 OA
ATOM     45  HG1 THR A   5      14.575   2.696  14.759  0.00  0.00    +0.210 HD
ENDBRANCH  42  44
ENDBRANCH  29  42
ENDBRANCH  26  29
ENDBRANCH   1  25
BRANCH   1  46
ATOM     46  CB  ARG A   4      17.452   2.582  10.585  0.00  0.00    +0.033 C 
BRANCH  46  47
ATOM     47  CG  ARG A   4      17.624   3.387   9.367  0.00  0.00    +0.045 C 
BRANCH  47  48
ATOM     48  CD  ARG A   4      17.128   2.601   8.164  0.00  0.00    +0.174 C 
BRANCH  48  49
ATOM     49  NE  ARG A   4      17.160   3.456   6.976  0.00  0.00    -0.265 N 
ATOM     50  HE  ARG A   4      16.251   3.791   6.597  0.00  0.00    +0.259 HD
ATOM     51  CZ  ARG A   4      18.269   3.834   6.348  0.00  0.00    +0.342 C 
ATOM     52  NH2 ARG A   4      19.452   3.410   6.769  0.00  0.00    -0.292 N 
ATOM     53 HH21 ARG A   4      19.515   2.779   7.593  0.00  0.00    +0.255 HD
ATOM     54 HH22 ARG A   4      20.317   3.708   6.275  0.00  0.00    +0.255 HD
ATOM     55  NH1 ARG A   4      18.195   4.619   5.283  0.00  0.00    -0.292 N 
ATOM     56 HH11 ARG A   4      17.268   4.940   4.937  0.00  0.00    +0.255 HD
ATOM     57 HH12 ARG A   4      19.064   4.914   4.793  0.00  0.00    +0.255 HD
ENDBRANCH  48  49
ENDBRANCH  47  48
ENDBRANCH  46  47
ENDBRANCH   1  46
TORSDOF 24
REMARK  Name = ../refined-set-2016/1kc7/1kc7_pocket.pdb
REMARK  150 active torsions:
REMARK  status: ('A' for Active; 'I' for Inactive)
REMARK    1  A    between atoms: _1  and  _3
REMARK    2  A    between atoms: _3  and  _4
REMARK    3  A    between atoms: _3  and  _6
REMARK    4  A    between atoms: _6  and  _7
REMARK    5  A    between atoms: _12  and  _14
REMARK    6  A    between atoms: _14  and  _15
REMARK    7  A    between atoms: _14  and  _17
REMARK    8  A    between atoms: _17  and  _18
REMARK    9  A    between atoms: _21  and  _23
REMARK   10  A    between atoms: _23  and  _24
REMARK   11  A    between atoms: _26  and  _28
REMARK   12  A    between atoms: _28  and  _29
REMARK   13  A    between atoms: _28  and  _31
REMARK   14  A    between atoms: _31  and  _32
REMARK   15  A    between atoms: _35  and  _37
REMARK   16  A    between atoms: _37  and  _38
REMARK   17  A    between atoms: _37  and  _40
REMARK   18  A    between atoms: _42  and  _44
REMARK   19  A    between atoms: _44  and  _45
REMARK   20  A    between atoms: _44  and  _47
REMARK   21  A    between atoms: _47  and  _48
REMARK   22  A    between atoms: _48  and  _49
REMARK   23  A    between atoms: _49  and  _50
REMARK   24  A    between atoms: _59  and  _61
REMARK   25  A    between atoms: _61  and  _62
REMARK   26  A    between atoms: _61  and  _64
REMARK   27  A    between atoms: _64  and  _65
REMARK   28  A    between atoms: _68  and  _70
REMARK   29  A    between atoms: _70  and  _71
REMARK   30  A    between atoms: _70  and  _73
REMARK   31  A    between atoms: _73  and  _74
REMARK   32  A    between atoms: _74  and  _75
REMARK   33  A    between atoms: _78  and  _80
REMARK   34  A    between atoms: _80  and  _81
REMARK   35  A    between atoms: _80  and  _83
REMARK   36  A    between atoms: _83  and  _84
REMARK   37  A    between atoms: _84  and  _85
REMARK   38  A    between atoms: _85  and  _86
REMARK   39  A    between atoms: _95  and  _97
REMARK   40  A    between atoms: _97  and  _98
REMARK   41  A    between atoms: _97  and  _100
REMARK   42  A    between atoms: _100  and  _101
REMARK   43  A    between atoms: _104  and  _106
REMARK   44  A    between atoms: _106  and  _107
REMARK   45  A    between atoms: _106  and  _109
REMARK   46  A    between atoms: _109  and  _110
REMARK   47  A    between atoms: _110  and  _111
REMARK   48  A    between atoms: _111  and  _112
REMARK   49  A    between atoms: _121  and  _123
REMARK   50  A    between atoms: _123  and  _124
REMARK   51  A    between atoms: _123  and  _126
REMARK   52  A    between atoms: _126  and  _127
REMARK   53  A    between atoms: _127  and  _128
REMARK   54  A    between atoms: _131  and  _132
REMARK   55  A    between atoms: _137  and  _139
REMARK   56  A    between atoms: _139  and  _140
REMARK   57  A    between atoms: _139  and  _142
REMARK   58  A    between atoms: _142  and  _143
REMARK   59  A    between atoms: _146  and  _148
REMARK   60  A    between atoms: _148  and  _149
REMARK   61  A    between atoms: _148  and  _151
REMARK   62  A    between atoms: _151  and  _152
REMARK   63  A    between atoms: _152  and  _153
REMARK   64  A    between atoms: _155  and  _157
REMARK   65  A    between atoms: _157  and  _158
REMARK   66  A    between atoms: _157  and  _160
REMARK   67  A    between atoms: _160  and  _161
REMARK   68  A    between atoms: _164  and  _166
REMARK   69  A    between atoms: _166  and  _167
REMARK   70  A    between atoms: _166  and  _169
REMARK   71  A    between atoms: _169  and  _170
REMARK   72  A    between atoms: _170  and  _171
REMARK   73  A    between atoms: _171  and  _172
REMARK   74  A    between atoms: _172  and  MG_348
REMARK   75  A    between atoms: _174  and  _176
REMARK   76  A    between atoms: _176  and  _177
REMARK   77  A    between atoms: _176  and  _179
REMARK   78  A    between atoms: _179  and  _180
REMARK   79  A    between atoms: _183  and  _185
REMARK   80  A    between atoms: _185  and  _186
REMARK   81  A    between atoms: _185  and  _188
REMARK   82  A    between atoms: _188  and  _189
REMARK   83  A    between atoms: _191  and  _193
REMARK   84  A    between atoms: _193  and  _194
REMARK   85  A    between atoms: _193  and  _196
REMARK   86  A    between atoms: _196  and  _197
REMARK   87  A    between atoms: _203  and  _205
REMARK   88  A    between atoms: _205  and  _206
REMARK   89  A    between atoms: _208  and  _210
REMARK   90  A    between atoms: _210  and  _211
REMARK   91  A    between atoms: _210  and  _213
REMARK   92  A    between atoms: _213  and  _214
REMARK   93  A    between atoms: _217  and  _219
REMARK   94  A    between atoms: _219  and  _220
REMARK   95  A    between atoms: _219  and  _222
REMARK   96  A    between atoms: _222  and  _223
REMARK   97  A    between atoms: _228  and  _230
REMARK   98  A    between atoms: _230  and  _231
REMARK   99  A    between atoms: _230  and  _233
REMARK  100  A    between atoms: _233  and  _234
REMARK  101  A    between atoms: _234  and  _236
REMARK  102  A    between atoms: _236  and  MG_348
REMARK  103  A    between atoms: _237  and  _239
REMARK  104  A    between atoms: _239  and  _240
REMARK  105  A    between atoms: _239  and  _242
REMARK  106  A    between atoms: _242  and  _243
REMARK  107  A    between atoms: _246  and  _248
REMARK  108  A    between atoms: _248  and  _249
REMARK  109  A    between atoms: _248  and  _251
REMARK  110  A    between atoms: _251  and  _252
REMARK  111  A    between atoms: _255  and  _257
REMARK  112  A    between atoms: _257  and  _258
REMARK  113  A    between atoms: _257  and  _260
REMARK  114  A    between atoms: _260  and  _261
REMARK  115  A    between atoms: _261  and  _262
REMARK  116  A    between atoms: _267  and  _269
REMARK  117  A    between atoms: _269  and  _270
REMARK  118  A    between atoms: _269  and  _272
REMARK  119  A    between atoms: _272  and  _273
REMARK  120  A    between atoms: _273  and  _274
REMARK  121  A    between atoms: _276  and  _278
REMARK  122  A    between atoms: _278  and  _279
REMARK  123  A    between atoms: _278  and  _281
REMARK  124  A    between atoms: _281  and  _282
REMARK  125  A    between atoms: _282  and  _283
REMARK  126  A    between atoms: _283  and  _284
REMARK  127  A    between atoms: _293  and  _295
REMARK  128  A    between atoms: _295  and  _296
REMARK  129  A    between atoms: _295  and  _298
REMARK  130  A    between atoms: _298  and  _299
REMARK  131  A    between atoms: _302  and  _304
REMARK  132  A    between atoms: _304  and  _305
REMARK  133  A    between atoms: _304  and  _307
REMARK  134  A    between atoms: _309  and  _311
REMARK  135  A    between atoms: _311  and  _312
REMARK  136  A    between atoms: _314  and  _316
REMARK  137  A    between atoms: _316  and  _317
REMARK  138  A    between atoms: _316  and  _319
REMARK  139  A    between atoms: _319  and  _320
REMARK  140  A    between atoms: _320  and  _321
REMARK  141  A    between atoms: _324  and  _326
REMARK  142  A    between atoms: _326  and  _327
REMARK  143  A    between atoms: _326  and  _329
REMARK  144  A    between atoms: _329  and  _330
REMARK  145  A    between atoms: _335  and  _337
REMARK  146  A    between atoms: _337  and  _338
REMARK  147  A    between atoms: _340  and  _342
REMARK  148  A    between atoms: _342  and  _343
REMARK  149  A    between atoms: _342  and  _345
REMARK  150  A    between atoms: _345  and  _346
REMARK                            x       y       z     vdW  Elec       q    Type
REMARK                         _______ _______ _______ _____ _____    ______ ____
ROOT
ATOM      1  NE  ARG A   1      13.135   5.704  10.301  0.00  0.00    -0.265 N 
ATOM      2  HE  ARG A   1      12.999   6.672   9.947  0.00  0.00    +0.259 HD
ATOM      3  CZ  ARG A   1      13.424   4.773   9.408  0.00  0.00    +0.342 C 
ATOM      4  NH2 ARG A   1      13.643   3.500   9.747  0.00  0.00    -0.292 N 
ATOM      5 HH21 ARG A   1      13.589   3.211  10.745  0.00  0.00    +0.255 HD
ATOM      6 HH22 ARG A   1      13.868   2.798   9.013  0.00  0.00    +0.255 HD
ATOM      7  NH1 ARG A   1      13.450   5.144   8.134  0.00  0.00    -0.292 N 
ATOM      8 HH11 ARG A   1      13.248   6.131   7.876  0.00  0.00    +0.255 HD
ATOM      9 HH12 ARG A   1      13.672   4.448   7.394  0.00  0.00    +0.255 HD
ENDROOT
BRANCH   1  10
ATOM     10  CD  ARG A   1      12.994   5.503  11.695  0.00  0.00    +0.174 C 
BRANCH  10  11
ATOM     11  CG  ARG A   1      13.186   6.765  12.374  0.00  0.00    +0.045 C 
BRANCH  11  12
ATOM     12  CB  ARG A   1      14.595   6.774  12.956  0.00  0.00    +0.029 C 
BRANCH  12  13
ATOM     13  CA  ARG A   1      14.578   6.987  14.455  0.00  0.00    +0.133 C 
BRANCH  13  14
ATOM     14  N   ARG A   1      15.884   7.313  14.892  0.00  0.00    -0.239 NA
ATOM     15  H   ARG A   1      16.696   6.923  14.373  0.00  0.00    +0.142 HD
ENDBRANCH  13  14
BRANCH  13  16
ATOM     16  C   ARG A   1      13.923   5.834  15.116  0.00  0.00    +0.224 C 
ATOM     17  O   ARG A   1      14.428   4.682  15.055  0.00  0.00    -0.287 OA
ENDBRANCH  13  16
ENDBRANCH  12  13
ENDBRANCH  11  12
ENDBRANCH  10  11
ENDBRANCH   1  10
TORSDOF 6
REMARK  Name = ../refined-set-2016/1kc7/1kc7_pocket.pdb
REMARK  150 active torsions:
REMARK  status: ('A' for Active; 'I' for Inactive)
REMARK    1  A    between atoms: _1  and  _3
REMARK    2  A    between atoms: _3  and  _4
REMARK    3  A    between atoms: _3  and  _6
REMARK    4  A    between atoms: _6  and  _7
REMARK    5  A    between atoms: _12  and  _14
REMARK    6  A    between atoms: _14  and  _15
REMARK    7  A    between atoms: _14  and  _17
REMARK    8  A    between atoms: _17  and  _18
REMARK    9  A    between atoms: _21  and  _23
REMARK   10  A    between atoms: _23  and  _24
REMARK   11  A    between atoms: _26  and  _28
REMARK   12  A    between atoms: _28  and  _29
REMARK   13  A    between atoms: _28  and  _31
REMARK   14  A    between atoms: _31  and  _32
REMARK   15  A    between atoms: _35  and  _37
REMARK   16  A    between atoms: _37  and  _38
REMARK   17  A    between atoms: _37  and  _40
REMARK   18  A    between atoms: _42  and  _44
REMARK   19  A    between atoms: _44  and  _45
REMARK   20  A    between atoms: _44  and  _47
REMARK   21  A    between atoms: _47  and  _48
REMARK   22  A    between atoms: _48  and  _49
REMARK   23  A    between atoms: _49  and  _50
REMARK   24  A    between atoms: _59  and  _61
REMARK   25  A    between atoms: _61  and  _62
REMARK   26  A    between atoms: _61  and  _64
REMARK   27  A    between atoms: _64  and  _65
REMARK   28  A    between atoms: _68  and  _70
REMARK   29  A    between atoms: _70  and  _71
REMARK   30  A    between atoms: _70  and  _73
REMARK   31  A    between atoms: _73  and  _74
REMARK   32  A    between atoms: _74  and  _75
REMARK   33  A    between atoms: _78  and  _80
REMARK   34  A    between atoms: _80  and  _81
REMARK   35  A    between atoms: _80  and  _83
REMARK   36  A    between atoms: _83  and  _84
REMARK   37  A    between atoms: _84  and  _85
REMARK   38  A    between atoms: _85  and  _86
REMARK   39  A    between atoms: _95  and  _97
REMARK   40  A    between atoms: _97  and  _98
REMARK   41  A    between atoms: _97  and  _100
REMARK   42  A    between atoms: _100  and  _101
REMARK   43  A    between atoms: _104  and  _106
REMARK   44  A    between atoms: _106  and  _107
REMARK   45  A    between atoms: _106  and  _109
REMARK   46  A    between atoms: _109  and  _110
REMARK   47  A    between atoms: _110  and  _111
REMARK   48  A    between atoms: _111  and  _112
REMARK   49  A    between atoms: _121  and  _123
REMARK   50  A    between atoms: _123  and  _124
REMARK   51  A    between atoms: _123  and  _126
REMARK   52  A    between atoms: _126  and  _127
REMARK   53  A    between atoms: _127  and  _128
REMARK   54  A    between atoms: _131  and  _132
REMARK   55  A    between atoms: _137  and  _139
REMARK   56  A    between atoms: _139  and  _140
REMARK   57  A    between atoms: _139  and  _142
REMARK   58  A    between atoms: _142  and  _143
REMARK   59  A    between atoms: _146  and  _148
REMARK   60  A    between atoms: _148  and  _149
REMARK   61  A    between atoms: _148  and  _151
REMARK   62  A    between atoms: _151  and  _152
REMARK   63  A    between atoms: _152  and  _153
REMARK   64  A    between atoms: _155  and  _157
REMARK   65  A    between atoms: _157  and  _158
REMARK   66  A    between atoms: _157  and  _160
REMARK   67  A    between atoms: _160  and  _161
REMARK   68  A    between atoms: _164  and  _166
REMARK   69  A    between atoms: _166  and  _167
REMARK   70  A    between atoms: _166  and  _169
REMARK   71  A    between atoms: _169  and  _170
REMARK   72  A    between atoms: _170  and  _171
REMARK   73  A    between atoms: _171  and  _172
REMARK   74  A    between atoms: _172  and  MG_348
REMARK   75  A    between atoms: _174  and  _176
REMARK   76  A    between atoms: _176  and  _177
REMARK   77  A    between atoms: _176  and  _179
REMARK   78  A    between atoms: _179  and  _180
REMARK   79  A    between atoms: _183  and  _185
REMARK   80  A    between atoms: _185  and  _186
REMARK   81  A    between atoms: _185  and  _188
REMARK   82  A    between atoms: _188  and  _189
REMARK   83  A    between atoms: _191  and  _193
REMARK   84  A    between atoms: _193  and  _194
REMARK   85  A    between atoms: _193  and  _196
REMARK   86  A    between atoms: _196  and  _197
REMARK   87  A    between atoms: _203  and  _205
REMARK   88  A    between atoms: _205  and  _206
REMARK   89  A    between atoms: _208  and  _210
REMARK   90  A    between atoms: _210  and  _211
REMARK   91  A    between atoms: _210  and  _213
REMARK   92  A    between atoms: _213  and  _214
REMARK   93  A    between atoms: _217  and  _219
REMARK   94  A    between atoms: _219  and  _220
REMARK   95  A    between atoms: _219  and  _222
REMARK   96  A    between atoms: _222  and  _223
REMARK   97  A    between atoms: _228  and  _230
REMARK   98  A    between atoms: _230  and  _231
REMARK   99  A    between atoms: _230  and  _233
REMARK  100  A    between atoms: _233  and  _234
REMARK  101  A    between atoms: _234  and  _236
REMARK  102  A    between atoms: _236  and  MG_348
REMARK  103  A    between atoms: _237  and  _239
REMARK  104  A    between atoms: _239  and  _240
REMARK  105  A    between atoms: _239  and  _242
REMARK  106  A    between atoms: _242  and  _243
REMARK  107  A    between atoms: _246  and  _248
REMARK  108  A    between atoms: _248  and  _249
REMARK  109  A    between atoms: _248  and  _251
REMARK  110  A    between atoms: _251  and  _252
REMARK  111  A    between atoms: _255  and  _257
REMARK  112  A    between atoms: _257  and  _258
REMARK  113  A    between atoms: _257  and  _260
REMARK  114  A    between atoms: _260  and  _261
REMARK  115  A    between atoms: _261  and  _262
REMARK  116  A    between atoms: _267  and  _269
REMARK  117  A    between atoms: _269  and  _270
REMARK  118  A    between atoms: _269  and  _272
REMARK  119  A    between atoms: _272  and  _273
REMARK  120  A    between atoms: _273  and  _274
REMARK  121  A    between atoms: _276  and  _278
REMARK  122  A    between atoms: _278  and  _279
REMARK  123  A    between atoms: _278  and  _281
REMARK  124  A    between atoms: _281  and  _282
REMARK  125  A    between atoms: _282  and  _283
REMARK  126  A    between atoms: _283  and  _284
REMARK  127  A    between atoms: _293  and  _295
REMARK  128  A    between atoms: _295  and  _296
REMARK  129  A    between atoms: _295  and  _298
REMARK  130  A    between atoms: _298  and  _299
REMARK  131  A    between atoms: _302  and  _304
REMARK  132  A    between atoms: _304  and  _305
REMARK  133  A    between atoms: _304  and  _307
REMARK  134  A    between atoms: _309  and  _311
REMARK  135  A    between atoms: _311  and  _312
REMARK  136  A    between atoms: _314  and  _316
REMARK  137  A    between atoms: _316  and  _317
REMARK  138  A    between atoms: _316  and  _319
REMARK  139  A    between atoms: _319  and  _320
REMARK  140  A    between atoms: _320  and  _321
REMARK  141  A    between atoms: _324  and  _326
REMARK  142  A    between atoms: _326  and  _327
REMARK  143  A    between atoms: _326  and  _329
REMARK  144  A    between atoms: _329  and  _330
REMARK  145  A    between atoms: _335  and  _337
REMARK  146  A    between atoms: _337  and  _338
REMARK  147  A    between atoms: _340  and  _342
REMARK  148  A    between atoms: _342  and  _343
REMARK  149  A    between atoms: _342  and  _345
REMARK  150  A    between atoms: _345  and  _346
REMARK                            x       y       z     vdW  Elec       q    Type
REMARK                         _______ _______ _______ _____ _____    ______ ____
ROOT
ATOM      1  CA  ASP A   1       9.468   2.052  11.574  0.00  0.00    +0.144 C 
ENDROOT
BRANCH   1   2
ATOM      2  N   ASP A   1      10.238   1.750  12.771  0.00  0.00    -0.239 NA
ATOM      3  H   ASP A   1      11.175   1.311  12.665  0.00  0.00    +0.142 HD
ENDBRANCH   1   2
BRANCH   1   4
ATOM      4  C   ASP A   1       8.505   1.014  10.963  0.00  0.00    +0.225 C 
ATOM      5  O   ASP A   1       7.407   1.357  10.555  0.00  0.00    -0.287 OA
ENDBRANCH   1   4
BRANCH   1   6
ATOM      6  CB  ASP A   1      10.455   2.480  10.478  0.00  0.00    +0.139 C 
BRANCH   6   7
ATOM      7  CG  ASP A   1       9.772   2.971   9.194  0.00  0.00    +0.367 C 
ATOM      8  OD2 ASP A   1       9.427   4.161   9.126  0.00  0.00    -0.246 OA
ATOM      9  OD1 ASP A   1       9.603   2.186   8.229  0.00  0.00    -0.246 OA
ENDBRANCH   6   7
ENDBRANCH   1   6
TORSDOF 4
REMARK  Name = ../refined-set-2016/1kc7/1kc7_pocket.pdb
REMARK  150 active torsions:
REMARK  status: ('A' for Active; 'I' for Inactive)
REMARK    1  A    between atoms: _1  and  _3
REMARK    2  A    between atoms: _3  and  _4
REMARK    3  A    between atoms: _3  and  _6
REMARK    4  A    between atoms: _6  and  _7
REMARK    5  A    between atoms: _12  and  _14
REMARK    6  A    between atoms: _14  and  _15
REMARK    7  A    between atoms: _14  and  _17
REMARK    8  A    between atoms: _17  and  _18
REMARK    9  A    between atoms: _21  and  _23
REMARK   10  A    between atoms: _23  and  _24
REMARK   11  A    between atoms: _26  and  _28
REMARK   12  A    between atoms: _28  and  _29
REMARK   13  A    between atoms: _28  and  _31
REMARK   14  A    between atoms: _31  and  _32
REMARK   15  A    between atoms: _35  and  _37
REMARK   16  A    between atoms: _37  and  _38
REMARK   17  A    between atoms: _37  and  _40
REMARK   18  A    between atoms: _42  and  _44
REMARK   19  A    between atoms: _44  and  _45
REMARK   20  A    between atoms: _44  and  _47
REMARK   21  A    between atoms: _47  and  _48
REMARK   22  A    between atoms: _48  and  _49
REMARK   23  A    between atoms: _49  and  _50
REMARK   24  A    between atoms: _59  and  _61
REMARK   25  A    between atoms: _61  and  _62
REMARK   26  A    between atoms: _61  and  _64
REMARK   27  A    between atoms: _64  and  _65
REMARK   28  A    between atoms: _68  and  _70
REMARK   29  A    between atoms: _70  and  _71
REMARK   30  A    between atoms: _70  and  _73
REMARK   31  A    between atoms: _73  and  _74
REMARK   32  A    between atoms: _74  and  _75
REMARK   33  A    between atoms: _78  and  _80
REMARK   34  A    between atoms: _80  and  _81
REMARK   35  A    between atoms: _80  and  _83
REMARK   36  A    between atoms: _83  and  _84
REMARK   37  A    between atoms: _84  and  _85
REMARK   38  A    between atoms: _85  and  _86
REMARK   39  A    between atoms: _95  and  _97
REMARK   40  A    between atoms: _97  and  _98
REMARK   41  A    between atoms: _97  and  _100
REMARK   42  A    between atoms: _100  and  _101
REMARK   43  A    between atoms: _104  and  _106
REMARK   44  A    between atoms: _106  and  _107
REMARK   45  A    between atoms: _106  and  _109
REMARK   46  A    between atoms: _109  and  _110
REMARK   47  A    between atoms: _110  and  _111
REMARK   48  A    between atoms: _111  and  _112
REMARK   49  A    between atoms: _121  and  _123
REMARK   50  A    between atoms: _123  and  _124
REMARK   51  A    between atoms: _123  and  _126
REMARK   52  A    between atoms: _126  and  _127
REMARK   53  A    between atoms: _127  and  _128
REMARK   54  A    between atoms: _131  and  _132
REMARK   55  A    between atoms: _137  and  _139
REMARK   56  A    between atoms: _139  and  _140
REMARK   57  A    between atoms: _139  and  _142
REMARK   58  A    between atoms: _142  and  _143
REMARK   59  A    between atoms: _146  and  _148
REMARK   60  A    between atoms: _148  and  _149
REMARK   61  A    between atoms: _148  and  _151
REMARK   62  A    between atoms: _151  and  _152
REMARK   63  A    between atoms: _152  and  _153
REMARK   64  A    between atoms: _155  and  _157
REMARK   65  A    between atoms: _157  and  _158
REMARK   66  A    between atoms: _157  and  _160
REMARK   67  A    between atoms: _160  and  _161
REMARK   68  A    between atoms: _164  and  _166
REMARK   69  A    between atoms: _166  and  _167
REMARK   70  A    between atoms: _166  and  _169
REMARK   71  A    between atoms: _169  and  _170
REMARK   72  A    between atoms: _170  and  _171
REMARK   73  A    between atoms: _171  and  _172
REMARK   74  A    between atoms: _172  and  MG_348
REMARK   75  A    between atoms: _174  and  _176
REMARK   76  A    between atoms: _176  and  _177
REMARK   77  A    between atoms: _176  and  _179
REMARK   78  A    between atoms: _179  and  _180
REMARK   79  A    between atoms: _183  and  _185
REMARK   80  A    between atoms: _185  and  _186
REMARK   81  A    between atoms: _185  and  _188
REMARK   82  A    between atoms: _188  and  _189
REMARK   83  A    between atoms: _191  and  _193
REMARK   84  A    between atoms: _193  and  _194
REMARK   85  A    between atoms: _193  and  _196
REMARK   86  A    between atoms: _196  and  _197
REMARK   87  A    between atoms: _203  and  _205
REMARK   88  A    between atoms: _205  and  _206
REMARK   89  A    between atoms: _208  and  _210
REMARK   90  A    between atoms: _210  and  _211
REMARK   91  A    between atoms: _210  and  _213
REMARK   92  A    between atoms: _213  and  _214
REMARK   93  A    between atoms: _217  and  _219
REMARK   94  A    between atoms: _219  and  _220
REMARK   95  A    between atoms: _219  and  _222
REMARK   96  A    between atoms: _222  and  _223
REMARK   97  A    between atoms: _228  and  _230
REMARK   98  A    between atoms: _230  and  _231
REMARK   99  A    between atoms: _230  and  _233
REMARK  100  A    between atoms: _233  and  _234
REMARK  101  A    between atoms: _234  and  _236
REMARK  102  A    between atoms: _236  and  MG_348
REMARK  103  A    between atoms: _237  and  _239
REMARK  104  A    between atoms: _239  and  _240
REMARK  105  A    between atoms: _239  and  _242
REMARK  106  A    between atoms: _242  and  _243
REMARK  107  A    between atoms: _246  and  _248
REMARK  108  A    between atoms: _248  and  _249
REMARK  109  A    between atoms: _248  and  _251
REMARK  110  A    between atoms: _251  and  _252
REMARK  111  A    between atoms: _255  and  _257
REMARK  112  A    between atoms: _257  and  _258
REMARK  113  A    between atoms: _257  and  _260
REMARK  114  A    between atoms: _260  and  _261
REMARK  115  A    between atoms: _261  and  _262
REMARK  116  A    between atoms: _267  and  _269
REMARK  117  A    between atoms: _269  and  _270
REMARK  118  A    between atoms: _269  and  _272
REMARK  119  A    between atoms: _272  and  _273
REMARK  120  A    between atoms: _273  and  _274
REMARK  121  A    between atoms: _276  and  _278
REMARK  122  A    between atoms: _278  and  _279
REMARK  123  A    between atoms: _278  and  _281
REMARK  124  A    between atoms: _281  and  _282
REMARK  125  A    between atoms: _282  and  _283
REMARK  126  A    between atoms: _283  and  _284
REMARK  127  A    between atoms: _293  and  _295
REMARK  128  A    between atoms: _295  and  _296
REMARK  129  A    between atoms: _295  and  _298
REMARK  130  A    between atoms: _298  and  _299
REMARK  131  A    between atoms: _302  and  _304
REMARK  132  A    between atoms: _304  and  _305
REMARK  133  A    between atoms: _304  and  _307
REMARK  134  A    between atoms: _309  and  _311
REMARK  135  A    between atoms: _311  and  _312
REMARK  136  A    between atoms: _314  and  _316
REMARK  137  A    between atoms: _316  and  _317
REMARK  138  A    between atoms: _316  and  _319
REMARK  139  A    between atoms: _319  and  _320
REMARK  140  A    between atoms: _320  and  _321
REMARK  141  A    between atoms: _324  and  _326
REMARK  142  A    between atoms: _326  and  _327
REMARK  143  A    between atoms: _326  and  _329
REMARK  144  A    between atoms: _329  and  _330
REMARK  145  A    between atoms: _335  and  _337
REMARK  146  A    between atoms: _337  and  _338
REMARK  147  A    between atoms: _340  and  _342
REMARK  148  A    between atoms: _342  and  _343
REMARK  149  A    between atoms: _342  and  _345
REMARK  150  A    between atoms: _345  and  _346
REMARK                            x       y       z     vdW  Elec       q    Type
REMARK                         _______ _______ _______ _____ _____    ______ ____
ROOT
ATOM      1  NE  ARG A   1       5.768   1.226   8.012  0.00  0.00    -0.265 N 
ATOM      2  HE  ARG A   1       6.295   1.524   8.858  0.00  0.00    +0.259 HD
ATOM      3  CZ  ARG A   1       6.461   0.719   6.991  0.00  0.00    +0.342 C 
ATOM      4  NH2 ARG A   1       7.805   0.669   7.031  0.00  0.00    -0.292 N 
ATOM      5 HH21 ARG A   1       8.314   1.028   7.864  0.00  0.00    +0.255 HD
ATOM      6 HH22 ARG A   1       8.335   0.272   6.229  0.00  0.00    +0.255 HD
ATOM      7  NH1 ARG A   1       5.827   0.298   5.892  0.00  0.00    -0.292 N 
ATOM      8 HH11 ARG A   1       4.791   0.365   5.831  0.00  0.00    +0.255 HD
ATOM      9 HH12 ARG A   1       6.370  -0.097   5.098  0.00  0.00    +0.255 HD
ENDROOT
BRANCH   1  10
ATOM     10  CD  ARG A   1       4.296   1.392   8.017  0.00  0.00    +0.174 C 
BRANCH  10  11
ATOM     11  CG  ARG A   1       3.693   1.619   9.398  0.00  0.00    +0.045 C 
BRANCH  11  12
ATOM     12  CB  ARG A   1       4.227   0.727  10.564  0.00  0.00    +0.029 C 
BRANCH  12  13
ATOM     13  CA  ARG A   1       3.452   1.036  11.854  0.00  0.00    +0.133 C 
BRANCH  13  14
ATOM     14  N   ARG A   1       1.989   0.972  11.644  0.00  0.00    -0.239 NA
ATOM     15  H   ARG A   1       1.476   1.853  11.440  0.00  0.00    +0.142 HD
ENDBRANCH  13  14
BRANCH  13  16
ATOM     16  C   ARG A   1       3.810   2.484  12.229  0.00  0.00    +0.224 C 
ATOM     17  O   ARG A   1       2.955   3.369  12.179  0.00  0.00    -0.287 OA
ENDBRANCH  13  16
ENDBRANCH  12  13
ENDBRANCH  11  12
ENDBRANCH  10  11
ENDBRANCH   1  10
TORSDOF 6
REMARK  Name = ../refined-set-2016/1kc7/1kc7_pocket.pdb
REMARK  150 active torsions:
REMARK  status: ('A' for Active; 'I' for Inactive)
REMARK    1  A    between atoms: _1  and  _3
REMARK    2  A    between atoms: _3  and  _4
REMARK    3  A    between atoms: _3  and  _6
REMARK    4  A    between atoms: _6  and  _7
REMARK    5  A    between atoms: _12  and  _14
REMARK    6  A    between atoms: _14  and  _15
REMARK    7  A    between atoms: _14  and  _17
REMARK    8  A    between atoms: _17  and  _18
REMARK    9  A    between atoms: _21  and  _23
REMARK   10  A    between atoms: _23  and  _24
REMARK   11  A    between atoms: _26  and  _28
REMARK   12  A    between atoms: _28  and  _29
REMARK   13  A    between atoms: _28  and  _31
REMARK   14  A    between atoms: _31  and  _32
REMARK   15  A    between atoms: _35  and  _37
REMARK   16  A    between atoms: _37  and  _38
REMARK   17  A    between atoms: _37  and  _40
REMARK   18  A    between atoms: _42  and  _44
REMARK   19  A    between atoms: _44  and  _45
REMARK   20  A    between atoms: _44  and  _47
REMARK   21  A    between atoms: _47  and  _48
REMARK   22  A    between atoms: _48  and  _49
REMARK   23  A    between atoms: _49  and  _50
REMARK   24  A    between atoms: _59  and  _61
REMARK   25  A    between atoms: _61  and  _62
REMARK   26  A    between atoms: _61  and  _64
REMARK   27  A    between atoms: _64  and  _65
REMARK   28  A    between atoms: _68  and  _70
REMARK   29  A    between atoms: _70  and  _71
REMARK   30  A    between atoms: _70  and  _73
REMARK   31  A    between atoms: _73  and  _74
REMARK   32  A    between atoms: _74  and  _75
REMARK   33  A    between atoms: _78  and  _80
REMARK   34  A    between atoms: _80  and  _81
REMARK   35  A    between atoms: _80  and  _83
REMARK   36  A    between atoms: _83  and  _84
REMARK   37  A    between atoms: _84  and  _85
REMARK   38  A    between atoms: _85  and  _86
REMARK   39  A    between atoms: _95  and  _97
REMARK   40  A    between atoms: _97  and  _98
REMARK   41  A    between atoms: _97  and  _100
REMARK   42  A    between atoms: _100  and  _101
REMARK   43  A    between atoms: _104  and  _106
REMARK   44  A    between atoms: _106  and  _107
REMARK   45  A    between atoms: _106  and  _109
REMARK   46  A    between atoms: _109  and  _110
REMARK   47  A    between atoms: _110  and  _111
REMARK   48  A    between atoms: _111  and  _112
REMARK   49  A    between atoms: _121  and  _123
REMARK   50  A    between atoms: _123  and  _124
REMARK   51  A    between atoms: _123  and  _126
REMARK   52  A    between atoms: _126  and  _127
REMARK   53  A    between atoms: _127  and  _128
REMARK   54  A    between atoms: _131  and  _132
REMARK   55  A    between atoms: _137  and  _139
REMARK   56  A    between atoms: _139  and  _140
REMARK   57  A    between atoms: _139  and  _142
REMARK   58  A    between atoms: _142  and  _143
REMARK   59  A    between atoms: _146  and  _148
REMARK   60  A    between atoms: _148  and  _149
REMARK   61  A    between atoms: _148  and  _151
REMARK   62  A    between atoms: _151  and  _152
REMARK   63  A    between atoms: _152  and  _153
REMARK   64  A    between atoms: _155  and  _157
REMARK   65  A    between atoms: _157  and  _158
REMARK   66  A    between atoms: _157  and  _160
REMARK   67  A    between atoms: _160  and  _161
REMARK   68  A    between atoms: _164  and  _166
REMARK   69  A    between atoms: _166  and  _167
REMARK   70  A    between atoms: _166  and  _169
REMARK   71  A    between atoms: _169  and  _170
REMARK   72  A    between atoms: _170  and  _171
REMARK   73  A    between atoms: _171  and  _172
REMARK   74  A    between atoms: _172  and  MG_348
REMARK   75  A    between atoms: _174  and  _176
REMARK   76  A    between atoms: _176  and  _177
REMARK   77  A    between atoms: _176  and  _179
REMARK   78  A    between atoms: _179  and  _180
REMARK   79  A    between atoms: _183  and  _185
REMARK   80  A    between atoms: _185  and  _186
REMARK   81  A    between atoms: _185  and  _188
REMARK   82  A    between atoms: _188  and  _189
REMARK   83  A    between atoms: _191  and  _193
REMARK   84  A    between atoms: _193  and  _194
REMARK   85  A    between atoms: _193  and  _196
REMARK   86  A    between atoms: _196  and  _197
REMARK   87  A    between atoms: _203  and  _205
REMARK   88  A    between atoms: _205  and  _206
REMARK   89  A    between atoms: _208  and  _210
REMARK   90  A    between atoms: _210  and  _211
REMARK   91  A    between atoms: _210  and  _213
REMARK   92  A    between atoms: _213  and  _214
REMARK   93  A    between atoms: _217  and  _219
REMARK   94  A    between atoms: _219  and  _220
REMARK   95  A    between atoms: _219  and  _222
REMARK   96  A    between atoms: _222  and  _223
REMARK   97  A    between atoms: _228  and  _230
REMARK   98  A    between atoms: _230  and  _231
REMARK   99  A    between atoms: _230  and  _233
REMARK  100  A    between atoms: _233  and  _234
REMARK  101  A    between atoms: _234  and  _236
REMARK  102  A    between atoms: _236  and  MG_348
REMARK  103  A    between atoms: _237  and  _239
REMARK  104  A    between atoms: _239  and  _240
REMARK  105  A    between atoms: _239  and  _242
REMARK  106  A    between atoms: _242  and  _243
REMARK  107  A    between atoms: _246  and  _248
REMARK  108  A    between atoms: _248  and  _249
REMARK  109  A    between atoms: _248  and  _251
REMARK  110  A    between atoms: _251  and  _252
REMARK  111  A    between atoms: _255  and  _257
REMARK  112  A    between atoms: _257  and  _258
REMARK  113  A    between atoms: _257  and  _260
REMARK  114  A    between atoms: _260  and  _261
REMARK  115  A    between atoms: _261  and  _262
REMARK  116  A    between atoms: _267  and  _269
REMARK  117  A    between atoms: _269  and  _270
REMARK  118  A    between atoms: _269  and  _272
REMARK  119  A    between atoms: _272  and  _273
REMARK  120  A    between atoms: _273  and  _274
REMARK  121  A    between atoms: _276  and  _278
REMARK  122  A    between atoms: _278  and  _279
REMARK  123  A    between atoms: _278  and  _281
REMARK  124  A    between atoms: _281  and  _282
REMARK  125  A    between atoms: _282  and  _283
REMARK  126  A    between atoms: _283  and  _284
REMARK  127  A    between atoms: _293  and  _295
REMARK  128  A    between atoms: _295  and  _296
REMARK  129  A    between atoms: _295  and  _298
REMARK  130  A    between atoms: _298  and  _299
REMARK  131  A    between atoms: _302  and  _304
REMARK  132  A    between atoms: _304  and  _305
REMARK  133  A    between atoms: _304  and  _307
REMARK  134  A    between atoms: _309  and  _311
REMARK  135  A    between atoms: _311  and  _312
REMARK  136  A    between atoms: _314  and  _316
REMARK  137  A    between atoms: _316  and  _317
REMARK  138  A    between atoms: _316  and  _319
REMARK  139  A    between atoms: _319  and  _320
REMARK  140  A    between atoms: _320  and  _321
REMARK  141  A    between atoms: _324  and  _326
REMARK  142  A    between atoms: _326  and  _327
REMARK  143  A    between atoms: _326  and  _329
REMARK  144  A    between atoms: _329  and  _330
REMARK  145  A    between atoms: _335  and  _337
REMARK  146  A    between atoms: _337  and  _338
REMARK  147  A    between atoms: _340  and  _342
REMARK  148  A    between atoms: _342  and  _343
REMARK  149  A    between atoms: _342  and  _345
REMARK  150  A    between atoms: _345  and  _346
REMARK                            x       y       z     vdW  Elec       q    Type
REMARK                         _______ _______ _______ _____ _____    ______ ____
ROOT
ATOM      1  CA  MET A   1      12.607  11.112  16.123  0.00  0.00    +0.134 C 
ENDROOT
BRANCH   1   2
ATOM      2  N   MET A   1      13.507  10.774  17.217  0.00  0.00    -0.239 NA
ATOM      3  H   MET A   1      14.053   9.890  17.177  0.00  0.00    +0.142 HD
ENDBRANCH   1   2
BRANCH   1   4
ATOM      4  C   MET A   1      11.495  10.065  15.885  0.00  0.00    +0.224 C 
ATOM      5  O   MET A   1      11.796   8.862  15.702  0.00  0.00    -0.287 OA
ENDBRANCH   1   4
BRANCH   1   6
ATOM      6  CB  MET A   1      13.487  11.311  14.871  0.00  0.00    +0.037 C 
BRANCH   6   7
ATOM      7  CG  MET A   1      12.668  11.565  13.695  0.00  0.00    +0.059 C 
BRANCH   7   8
ATOM      8  SD  MET A   1      13.551  12.021  12.272  0.00  0.00    -0.139 S 
ATOM      9  CE  MET A   1      14.574  10.525  11.902  0.00  0.00    +0.069 C 
ENDBRANCH   7   8
ENDBRANCH   6   7
ENDBRANCH   1   6
TORSDOF 5
REMARK  Name = ../refined-set-2016/1kc7/1kc7_pocket.pdb
REMARK  150 active torsions:
REMARK  status: ('A' for Active; 'I' for Inactive)
REMARK    1  A    between atoms: _1  and  _3
REMARK    2  A    between atoms: _3  and  _4
REMARK    3  A    between atoms: _3  and  _6
REMARK    4  A    between atoms: _6  and  _7
REMARK    5  A    between atoms: _12  and  _14
REMARK    6  A    between atoms: _14  and  _15
REMARK    7  A    between atoms: _14  and  _17
REMARK    8  A    between atoms: _17  and  _18
REMARK    9  A    between atoms: _21  and  _23
REMARK   10  A    between atoms: _23  and  _24
REMARK   11  A    between atoms: _26  and  _28
REMARK   12  A    between atoms: _28  and  _29
REMARK   13  A    between atoms: _28  and  _31
REMARK   14  A    between atoms: _31  and  _32
REMARK   15  A    between atoms: _35  and  _37
REMARK   16  A    between atoms: _37  and  _38
REMARK   17  A    between atoms: _37  and  _40
REMARK   18  A    between atoms: _42  and  _44
REMARK   19  A    between atoms: _44  and  _45
REMARK   20  A    between atoms: _44  and  _47
REMARK   21  A    between atoms: _47  and  _48
REMARK   22  A    between atoms: _48  and  _49
REMARK   23  A    between atoms: _49  and  _50
REMARK   24  A    between atoms: _59  and  _61
REMARK   25  A    between atoms: _61  and  _62
REMARK   26  A    between atoms: _61  and  _64
REMARK   27  A    between atoms: _64  and  _65
REMARK   28  A    between atoms: _68  and  _70
REMARK   29  A    between atoms: _70  and  _71
REMARK   30  A    between atoms: _70  and  _73
REMARK   31  A    between atoms: _73  and  _74
REMARK   32  A    between atoms: _74  and  _75
REMARK   33  A    between atoms: _78  and  _80
REMARK   34  A    between atoms: _80  and  _81
REMARK   35  A    between atoms: _80  and  _83
REMARK   36  A    between atoms: _83  and  _84
REMARK   37  A    between atoms: _84  and  _85
REMARK   38  A    between atoms: _85  and  _86
REMARK   39  A    between atoms: _95  and  _97
REMARK   40  A    between atoms: _97  and  _98
REMARK   41  A    between atoms: _97  and  _100
REMARK   42  A    between atoms: _100  and  _101
REMARK   43  A    between atoms: _104  and  _106
REMARK   44  A    between atoms: _106  and  _107
REMARK   45  A    between atoms: _106  and  _109
REMARK   46  A    between atoms: _109  and  _110
REMARK   47  A    between atoms: _110  and  _111
REMARK   48  A    between atoms: _111  and  _112
REMARK   49  A    between atoms: _121  and  _123
REMARK   50  A    between atoms: _123  and  _124
REMARK   51  A    between atoms: _123  and  _126
REMARK   52  A    between atoms: _126  and  _127
REMARK   53  A    between atoms: _127  and  _128
REMARK   54  A    between atoms: _131  and  _132
REMARK   55  A    between atoms: _137  and  _139
REMARK   56  A    between atoms: _139  and  _140
REMARK   57  A    between atoms: _139  and  _142
REMARK   58  A    between atoms: _142  and  _143
REMARK   59  A    between atoms: _146  and  _148
REMARK   60  A    between atoms: _148  and  _149
REMARK   61  A    between atoms: _148  and  _151
REMARK   62  A    between atoms: _151  and  _152
REMARK   63  A    between atoms: _152  and  _153
REMARK   64  A    between atoms: _155  and  _157
REMARK   65  A    between atoms: _157  and  _158
REMARK   66  A    between atoms: _157  and  _160
REMARK   67  A    between atoms: _160  and  _161
REMARK   68  A    between atoms: _164  and  _166
REMARK   69  A    between atoms: _166  and  _167
REMARK   70  A    between atoms: _166  and  _169
REMARK   71  A    between atoms: _169  and  _170
REMARK   72  A    between atoms: _170  and  _171
REMARK   73  A    between atoms: _171  and  _172
REMARK   74  A    between atoms: _172  and  MG_348
REMARK   75  A    between atoms: _174  and  _176
REMARK   76  A    between atoms: _176  and  _177
REMARK   77  A    between atoms: _176  and  _179
REMARK   78  A    between atoms: _179  and  _180
REMARK   79  A    between atoms: _183  and  _185
REMARK   80  A    between atoms: _185  and  _186
REMARK   81  A    between atoms: _185  and  _188
REMARK   82  A    between atoms: _188  and  _189
REMARK   83  A    between atoms: _191  and  _193
REMARK   84  A    between atoms: _193  and  _194
REMARK   85  A    between atoms: _193  and  _196
REMARK   86  A    between atoms: _196  and  _197
REMARK   87  A    between atoms: _203  and  _205
REMARK   88  A    between atoms: _205  and  _206
REMARK   89  A    between atoms: _208  and  _210
REMARK   90  A    between atoms: _210  and  _211
REMARK   91  A    between atoms: _210  and  _213
REMARK   92  A    between atoms: _213  and  _214
REMARK   93  A    between atoms: _217  and  _219
REMARK   94  A    between atoms: _219  and  _220
REMARK   95  A    between atoms: _219  and  _222
REMARK   96  A    between atoms: _222  and  _223
REMARK   97  A    between atoms: _228  and  _230
REMARK   98  A    between atoms: _230  and  _231
REMARK   99  A    between atoms: _230  and  _233
REMARK  100  A    between atoms: _233  and  _234
REMARK  101  A    between atoms: _234  and  _236
REMARK  102  A    between atoms: _236  and  MG_348
REMARK  103  A    between atoms: _237  and  _239
REMARK  104  A    between atoms: _239  and  _240
REMARK  105  A    between atoms: _239  and  _242
REMARK  106  A    between atoms: _242  and  _243
REMARK  107  A    between atoms: _246  and  _248
REMARK  108  A    between atoms: _248  and  _249
REMARK  109  A    between atoms: _248  and  _251
REMARK  110  A    between atoms: _251  and  _252
REMARK  111  A    between atoms: _255  and  _257
REMARK  112  A    between atoms: _257  and  _258
REMARK  113  A    between atoms: _257  and  _260
REMARK  114  A    between atoms: _260  and  _261
REMARK  115  A    between atoms: _261  and  _262
REMARK  116  A    between atoms: _267  and  _269
REMARK  117  A    between atoms: _269  and  _270
REMARK  118  A    between atoms: _269  and  _272
REMARK  119  A    between atoms: _272  and  _273
REMARK  120  A    between atoms: _273  and  _274
REMARK  121  A    between atoms: _276  and  _278
REMARK  122  A    between atoms: _278  and  _279
REMARK  123  A    between atoms: _278  and  _281
REMARK  124  A    between atoms: _281  and  _282
REMARK  125  A    between atoms: _282  and  _283
REMARK  126  A    between atoms: _283  and  _284
REMARK  127  A    between atoms: _293  and  _295
REMARK  128  A    between atoms: _295  and  _296
REMARK  129  A    between atoms: _295  and  _298
REMARK  130  A    between atoms: _298  and  _299
REMARK  131  A    between atoms: _302  and  _304
REMARK  132  A    between atoms: _304  and  _305
REMARK  133  A    between atoms: _304  and  _307
REMARK  134  A    between atoms: _309  and  _311
REMARK  135  A    between atoms: _311  and  _312
REMARK  136  A    between atoms: _314  and  _316
REMARK  137  A    between atoms: _316  and  _317
REMARK  138  A    between atoms: _316  and  _319
REMARK  139  A    between atoms: _319  and  _320
REMARK  140  A    between atoms: _320  and  _321
REMARK  141  A    between atoms: _324  and  _326
REMARK  142  A    between atoms: _326  and  _327
REMARK  143  A    between atoms: _326  and  _329
REMARK  144  A    between atoms: _329  and  _330
REMARK  145  A    between atoms: _335  and  _337
REMARK  146  A    between atoms: _337  and  _338
REMARK  147  A    between atoms: _340  and  _342
REMARK  148  A    between atoms: _342  and  _343
REMARK  149  A    between atoms: _342  and  _345
REMARK  150  A    between atoms: _345  and  _346
REMARK                            x       y       z     vdW  Elec       q    Type
REMARK                         _______ _______ _______ _____ _____    ______ ____
ROOT
ATOM      1  C   PRO A   1       6.925   8.221  11.865  0.00  0.00    +0.239 C 
ATOM      2  O   PRO A   1       6.183   8.051  12.828  0.00  0.00    -0.274 OA
ATOM      3  N   LEU A   2       6.534   8.400  10.592  0.00  0.00    -0.298 N 
ATOM      4  H   LEU A   2       7.269   8.657   9.903  0.00  0.00    +0.150 HD
ENDROOT
BRANCH   1   9
ATOM      5  N   PRO A   1       8.678   8.429  13.489  0.00  0.00    -0.210 NA
ATOM      6  CD  PRO A   1       9.010   7.110  14.107  0.00  0.00    +0.089 C 
ATOM      7  CG  PRO A   1       8.753   6.105  12.961  0.00  0.00    +0.021 C 
ATOM      8  CB  PRO A   1       9.077   6.948  11.735  0.00  0.00    +0.028 C 
ATOM      9  CA  PRO A   1       8.406   8.287  12.075  0.00  0.00    +0.149 C 
ENDBRANCH   1   9
BRANCH   3  10
ATOM     10  CA  LEU A   2       5.154   8.265  10.084  0.00  0.00    +0.137 C 
BRANCH  10  11
ATOM     11  C   LEU A   2       4.057   8.938  10.867  0.00  0.00    +0.227 C 
ATOM     12  O   LEU A   2       3.013   8.337  11.207  0.00  0.00    -0.286 OA
ENDBRANCH  10  11
BRANCH  10  13
ATOM     13  CB  LEU A   2       4.850   6.771   9.822  0.00  0.00    +0.028 C 
BRANCH  13  14
ATOM     14  CG  LEU A   2       5.778   6.129   8.750  0.00  0.00    +0.002 C 
ATOM     15  CD2 LEU A   2       5.703   4.585   8.748  0.00  0.00    +0.000 C 
ATOM     16  CD1 LEU A   2       5.398   6.700   7.322  0.00  0.00    +0.000 C 
ENDBRANCH  13  14
ENDBRANCH  10  13
ENDBRANCH   3  10
TORSDOF 5
REMARK  Name = ../refined-set-2016/1kc7/1kc7_pocket.pdb
REMARK  150 active torsions:
REMARK  status: ('A' for Active; 'I' for Inactive)
REMARK    1  A    between atoms: _1  and  _3
REMARK    2  A    between atoms: _3  and  _4
REMARK    3  A    between atoms: _3  and  _6
REMARK    4  A    between atoms: _6  and  _7
REMARK    5  A    between atoms: _12  and  _14
REMARK    6  A    between atoms: _14  and  _15
REMARK    7  A    between atoms: _14  and  _17
REMARK    8  A    between atoms: _17  and  _18
REMARK    9  A    between atoms: _21  and  _23
REMARK   10  A    between atoms: _23  and  _24
REMARK   11  A    between atoms: _26  and  _28
REMARK   12  A    between atoms: _28  and  _29
REMARK   13  A    between atoms: _28  and  _31
REMARK   14  A    between atoms: _31  and  _32
REMARK   15  A    between atoms: _35  and  _37
REMARK   16  A    between atoms: _37  and  _38
REMARK   17  A    between atoms: _37  and  _40
REMARK   18  A    between atoms: _42  and  _44
REMARK   19  A    between atoms: _44  and  _45
REMARK   20  A    between atoms: _44  and  _47
REMARK   21  A    between atoms: _47  and  _48
REMARK   22  A    between atoms: _48  and  _49
REMARK   23  A    between atoms: _49  and  _50
REMARK   24  A    between atoms: _59  and  _61
REMARK   25  A    between atoms: _61  and  _62
REMARK   26  A    between atoms: _61  and  _64
REMARK   27  A    between atoms: _64  and  _65
REMARK   28  A    between atoms: _68  and  _70
REMARK   29  A    between atoms: _70  and  _71
REMARK   30  A    between atoms: _70  and  _73
REMARK   31  A    between atoms: _73  and  _74
REMARK   32  A    between atoms: _74  and  _75
REMARK   33  A    between atoms: _78  and  _80
REMARK   34  A    between atoms: _80  and  _81
REMARK   35  A    between atoms: _80  and  _83
REMARK   36  A    between atoms: _83  and  _84
REMARK   37  A    between atoms: _84  and  _85
REMARK   38  A    between atoms: _85  and  _86
REMARK   39  A    between atoms: _95  and  _97
REMARK   40  A    between atoms: _97  and  _98
REMARK   41  A    between atoms: _97  and  _100
REMARK   42  A    between atoms: _100  and  _101
REMARK   43  A    between atoms: _104  and  _106
REMARK   44  A    between atoms: _106  and  _107
REMARK   45  A    between atoms: _106  and  _109
REMARK   46  A    between atoms: _109  and  _110
REMARK   47  A    between atoms: _110  and  _111
REMARK   48  A    between atoms: _111  and  _112
REMARK   49  A    between atoms: _121  and  _123
REMARK   50  A    between atoms: _123  and  _124
REMARK   51  A    between atoms: _123  and  _126
REMARK   52  A    between atoms: _126  and  _127
REMARK   53  A    between atoms: _127  and  _128
REMARK   54  A    between atoms: _131  and  _132
REMARK   55  A    between atoms: _137  and  _139
REMARK   56  A    between atoms: _139  and  _140
REMARK   57  A    between atoms: _139  and  _142
REMARK   58  A    between atoms: _142  and  _143
REMARK   59  A    between atoms: _146  and  _148
REMARK   60  A    between atoms: _148  and  _149
REMARK   61  A    between atoms: _148  and  _151
REMARK   62  A    between atoms: _151  and  _152
REMARK   63  A    between atoms: _152  and  _153
REMARK   64  A    between atoms: _155  and  _157
REMARK   65  A    between atoms: _157  and  _158
REMARK   66  A    between atoms: _157  and  _160
REMARK   67  A    between atoms: _160  and  _161
REMARK   68  A    between atoms: _164  and  _166
REMARK   69  A    between atoms: _166  and  _167
REMARK   70  A    between atoms: _166  and  _169
REMARK   71  A    between atoms: _169  and  _170
REMARK   72  A    between atoms: _170  and  _171
REMARK   73  A    between atoms: _171  and  _172
REMARK   74  A    between atoms: _172  and  MG_348
REMARK   75  A    between atoms: _174  and  _176
REMARK   76  A    between atoms: _176  and  _177
REMARK   77  A    between atoms: _176  and  _179
REMARK   78  A    between atoms: _179  and  _180
REMARK   79  A    between atoms: _183  and  _185
REMARK   80  A    between atoms: _185  and  _186
REMARK   81  A    between atoms: _185  and  _188
REMARK   82  A    between atoms: _188  and  _189
REMARK   83  A    between atoms: _191  and  _193
REMARK   84  A    between atoms: _193  and  _194
REMARK   85  A    between atoms: _193  and  _196
REMARK   86  A    between atoms: _196  and  _197
REMARK   87  A    between atoms: _203  and  _205
REMARK   88  A    between atoms: _205  and  _206
REMARK   89  A    between atoms: _208  and  _210
REMARK   90  A    between atoms: _210  and  _211
REMARK   91  A    between atoms: _210  and  _213
REMARK   92  A    between atoms: _213  and  _214
REMARK   93  A    between atoms: _217  and  _219
REMARK   94  A    between atoms: _219  and  _220
REMARK   95  A    between atoms: _219  and  _222
REMARK   96  A    between atoms: _222  and  _223
REMARK   97  A    between atoms: _228  and  _230
REMARK   98  A    between atoms: _230  and  _231
REMARK   99  A    between atoms: _230  and  _233
REMARK  100  A    between atoms: _233  and  _234
REMARK  101  A    between atoms: _234  and  _236
REMARK  102  A    between atoms: _236  and  MG_348
REMARK  103  A    between atoms: _237  and  _239
REMARK  104  A    between atoms: _239  and  _240
REMARK  105  A    between atoms: _239  and  _242
REMARK  106  A    between atoms: _242  and  _243
REMARK  107  A    between atoms: _246  and  _248
REMARK  108  A    between atoms: _248  and  _249
REMARK  109  A    between atoms: _248  and  _251
REMARK  110  A    between atoms: _251  and  _252
REMARK  111  A    between atoms: _255  and  _257
REMARK  112  A    between atoms: _257  and  _258
REMARK  113  A    between atoms: _257  and  _260
REMARK  114  A    between atoms: _260  and  _261
REMARK  115  A    between atoms: _261  and  _262
REMARK  116  A    between atoms: _267  and  _269
REMARK  117  A    between atoms: _269  and  _270
REMARK  118  A    between atoms: _269  and  _272
REMARK  119  A    between atoms: _272  and  _273
REMARK  120  A    between atoms: _273  and  _274
REMARK  121  A    between atoms: _276  and  _278
REMARK  122  A    between atoms: _278  and  _279
REMARK  123  A    between atoms: _278  and  _281
REMARK  124  A    between atoms: _281  and  _282
REMARK  125  A    between atoms: _282  and  _283
REMARK  126  A    between atoms: _283  and  _284
REMARK  127  A    between atoms: _293  and  _295
REMARK  128  A    between atoms: _295  and  _296
REMARK  129  A    between atoms: _295  and  _298
REMARK  130  A    between atoms: _298  and  _299
REMARK  131  A    between atoms: _302  and  _304
REMARK  132  A    between atoms: _304  and  _305
REMARK  133  A    between atoms: _304  and  _307
REMARK  134  A    between atoms: _309  and  _311
REMARK  135  A    between atoms: _311  and  _312
REMARK  136  A    between atoms: _314  and  _316
REMARK  137  A    between atoms: _316  and  _317
REMARK  138  A    between atoms: _316  and  _319
REMARK  139  A    between atoms: _319  and  _320
REMARK  140  A    between atoms: _320  and  _321
REMARK  141  A    between atoms: _324  and  _326
REMARK  142  A    between atoms: _326  and  _327
REMARK  143  A    between atoms: _326  and  _329
REMARK  144  A    between atoms: _329  and  _330
REMARK  145  A    between atoms: _335  and  _337
REMARK  146  A    between atoms: _337  and  _338
REMARK  147  A    between atoms: _340  and  _342
REMARK  148  A    between atoms: _342  and  _343
REMARK  149  A    between atoms: _342  and  _345
REMARK  150  A    between atoms: _345  and  _346
REMARK                            x       y       z     vdW  Elec       q    Type
REMARK                         _______ _______ _______ _____ _____    ______ ____
ROOT
ATOM      1  C   UNK A   3       7.918   8.174   2.050  0.00  0.00    +0.000 C 
ENDROOT
BRANCH   1   2
ATOM      2  C   UNK A   3       7.158   9.306   1.531  0.00  0.00    +0.000 C 
ATOM      3  N   LEU A   7       7.638  10.532   1.838  0.00  0.00    +0.000 N 
ATOM      4  H   LEU A   7       8.513  10.642   2.390  0.00  0.00    +0.000 HD
ATOM      5  O   UNK A   3       6.171   9.104   0.825  0.00  0.00    +0.000 OA
BRANCH   3   6
ATOM      6  CA  LEU A   7       6.905  11.677   1.380  0.00  0.00    +0.000 C 
BRANCH   6   7
ATOM      7  C   LEU A   7       6.654  11.546  -0.129  0.00  0.00    +0.000 C 
ATOM      8  O   LEU A   7       5.541  11.679  -0.641  0.00  0.00    +0.000 OA
ATOM      9  N   THR A   8       7.700  11.251  -0.870  0.00  0.00    +0.000 N 
ATOM     10  H   THR A   8       8.635  11.092  -0.444  0.00  0.00    +0.000 HD
BRANCH   9  11
ATOM     11  CA  THR A   8       7.501  11.156  -2.303  0.00  0.00    +0.000 C 
BRANCH  11  12
ATOM     12  C   THR A   8       6.521  10.023  -2.622  0.00  0.00    +0.000 C 
ATOM     13  N   GLN A   9       6.571   8.927  -1.870  0.00  0.00    +0.000 N 
ATOM     14  H   GLN A   9       7.217   8.864  -1.058  0.00  0.00    +0.000 HD
ATOM     15  O   THR A   8       5.757  10.112  -3.569  0.00  0.00    +0.000 OA
BRANCH  13  16
ATOM     16  CA  GLN A   9       5.673   7.790  -2.226  0.00  0.00    +0.000 C 
BRANCH  16  17
ATOM     17  C   GLN A   9       4.181   8.213  -2.093  0.00  0.00    +0.000 C 
ATOM     18  N   MET A  10       3.898   8.953  -1.042  0.00  0.00    +0.000 N 
ATOM     19  H   MET A  10       4.678   9.254  -0.423  0.00  0.00    +0.000 HD
ATOM     20  O   GLN A   9       3.339   7.906  -2.916  0.00  0.00    +0.000 OA
BRANCH  18  21
ATOM     21  CA  MET A  10       2.562   9.364  -0.710  0.00  0.00    +0.000 C 
BRANCH  21  22
ATOM     22  C   MET A  10       2.061  10.581  -1.454  0.00  0.00    +0.000 C 
ATOM     23  O   MET A  10       0.857  10.772  -1.599  0.00  0.00    +0.000 OA
ENDBRANCH  21  22
BRANCH  21  24
ATOM     24  CB  MET A  10       2.488   9.575   0.812  0.00  0.00    +0.000 C 
BRANCH  24  25
ATOM     25  CG  MET A  10       2.465   8.277   1.615  0.00  0.00    +0.000 C 
BRANCH  25  26
ATOM     26  SD  MET A  10       2.614   8.793   3.314  0.00  0.00    +0.000 S 
ATOM     27  CE  MET A  10       4.133   7.967   3.902  0.00  0.00    +0.000 C 
ENDBRANCH  25  26
ENDBRANCH  24  25
ENDBRANCH  21  24
ENDBRANCH  18  21
ENDBRANCH  16  17
BRANCH  16  28
ATOM     28  CB  GLN A   9       5.950   6.594  -1.282  0.00  0.00    +0.000 C 
BRANCH  28  29
ATOM     29  CG  GLN A   9       7.259   5.834  -1.568  0.00  0.00    +0.000 C 
BRANCH  29  30
ATOM     30  CD  GLN A   9       7.277   4.350  -1.050  0.00  0.00    +0.000 C 
ATOM     31  NE2 GLN A   9       6.713   4.099   0.124  0.00  0.00    +0.000 N 
ATOM     32 HE21 GLN A   9       6.248   4.865   0.652  0.00  0.00    +0.000 HD
ATOM     33 HE22 GLN A   9       6.735   3.136   0.516  0.00  0.00    +0.000 HD
ATOM     34  OE1 GLN A   9       7.832   3.488  -1.705  0.00  0.00    +0.000 OA
ENDBRANCH  29  30
ENDBRANCH  28  29
ENDBRANCH  16  28
ENDBRANCH  13  16
ENDBRANCH  11  12
BRANCH  11  35
ATOM     35  CB  THR A   8       8.820  10.798  -3.033  0.00  0.00    +0.000 C 
ATOM     36  CG2 THR A   8       8.549  10.572  -4.500  0.00  0.00    +0.000 C 
BRANCH  35  37
ATOM     37  OG1 THR A   8       9.837  11.775  -2.798  0.00  0.00    +0.000 OA
ATOM     38  HG1 THR A   8      10.023  11.829  -1.827  0.00  0.00    +0.000 HD
ENDBRANCH  35  37
ENDBRANCH  11  35
ENDBRANCH   9  11
ENDBRANCH   6   7
BRANCH   6  39
ATOM     39  CB  LEU A   7       7.732  12.949   1.727  0.00  0.00    +0.000 C 
BRANCH  39  40
ATOM     40  CG  LEU A   7       6.834  14.160   1.530  0.00  0.00    +0.000 C 
ATOM     41  CD2 LEU A   7       5.580  14.052   2.402  0.00  0.00    +0.000 C 
ATOM     42  CD1 LEU A   7       7.583  15.410   1.830  0.00  0.00    +0.000 C 
ENDBRANCH  39  40
ENDBRANCH   6  39
ENDBRANCH   3   6
ENDBRANCH   1   2
BRANCH   1  43
ATOM     43  N   UNK A   3       9.348   8.274   1.751  0.00  0.00    +0.000 N 
ATOM     44  H   UNK A   3      10.031   8.340   2.532  0.00  0.00    +0.000 HD
ATOM     45  C   ASN A   5       9.788   8.282   0.491  0.00  0.00    +0.000 C 
ATOM     46  O   ASN A   5       9.031   8.379  -0.456  0.00  0.00    +0.000 OA
BRANCH  45  47
ATOM     47  CA  ASN A   5      11.317   8.333   0.255  0.00  0.00    +0.000 C 
BRANCH  47  48
ATOM     48  N   ASN A   5      11.682   9.483   1.028  0.00  0.00    +0.000 N 
ATOM     49  H   ASN A   5      12.239   9.402   1.903  0.00  0.00    +0.000 HD
ATOM     50  C   ILE A   4      11.267  10.665   0.563  0.00  0.00    +0.000 C 
ATOM     51  O   ILE A   4      10.652  10.795  -0.516  0.00  0.00    +0.000 OA
BRANCH  50  52
ATOM     52  CA  ILE A   4      11.554  11.885   1.399  0.00  0.00    +0.000 C 
BRANCH  52  53
ATOM     53  N   ILE A   4      12.142  11.728   2.740  0.00  0.00    +0.000 N 
ATOM     54  C   UNK A   3      11.303  11.396   3.707  0.00  0.00    +0.000 C 
ATOM     55  O   UNK A   3      10.147  11.101   3.476  0.00  0.00    +0.000 OA
ATOM     56  H   ILE A   4      13.157  11.870   2.916  0.00  0.00    +0.000 HD
BRANCH  54  57
ATOM     57  C   UNK A   3      11.812  11.368   5.112  0.00  0.00    +0.000 C 
BRANCH  57  58
ATOM     58  N   UNK A   3      11.546  12.716   5.611  0.00  0.00    +0.000 N 
ATOM     59  H   UNK A   3      10.651  12.936   6.093  0.00  0.00    +0.000 HD
ATOM     60  C   PHE A   2      12.465  13.650   5.438  0.00  0.00    +0.000 C 
ATOM     61  O   PHE A   2      13.535  13.387   4.903  0.00  0.00    +0.000 OA
BRANCH  60  62
ATOM     62  CA  PHE A   2      12.125  15.076   5.957  0.00  0.00    +0.000 C 
BRANCH  62  63
ATOM     63  N   PHE A   2      12.905  15.418   7.141  0.00  0.00    +0.000 N 
ATOM     64  C   SER A   1      12.513  15.004   8.334  0.00  0.00    +0.000 C 
ATOM     65  O   SER A   1      11.485  14.319   8.487  0.00  0.00    +0.000 OA
ATOM     66  H   PHE A   2      13.770  15.988   7.047  0.00  0.00    +0.000 HD
BRANCH  64  67
ATOM     67  CA  SER A   1      13.430  15.372   9.523  0.00  0.00    +0.000 C 
BRANCH  67  68
ATOM     68  N   SER A   1      12.537  15.955  10.499  0.00  0.00    +0.000 NA
ATOM     69  H   SER A   1      11.754  15.410  10.913  0.00  0.00    +0.000 HD
ENDBRANCH  67  68
BRANCH  67  70
ATOM     70  CB  SER A   1      14.131  14.131  10.022  0.00  0.00    +0.000 C 
BRANCH  70  71
ATOM     71  OG  SER A   1      15.030  13.705   9.019  0.00  0.00    +0.000 OA
ATOM     72  H   SER A   1      15.502  12.890   9.325  0.00  0.00    +0.000 HD
ENDBRANCH  70  71
ENDBRANCH  67  70
ENDBRANCH  64  67
ENDBRANCH  62  63
BRANCH  62  73
ATOM     73  CB  PHE A   2      12.326  16.154   4.868  0.00  0.00    +0.000 C 
BRANCH  73  74
ATOM     74  CG  PHE A   2      11.705  17.495   5.221  0.00  0.00    +0.000 A 
ATOM     75  CD2 PHE A   2      12.476  18.565   5.616  0.00  0.00    +0.000 A 
ATOM     76  CE2 PHE A   2      11.871  19.840   5.952  0.00  0.00    +0.000 A 
ATOM     77  CZ  PHE A   2      10.462  19.970   5.876  0.00  0.00    +0.000 A 
ATOM     78  CE1 PHE A   2       9.692  18.881   5.482  0.00  0.00    +0.000 A 
ATOM     79  CD1 PHE A   2      10.322  17.657   5.156  0.00  0.00    +0.000 A 
ENDBRANCH  73  74
ENDBRANCH  62  73
ENDBRANCH  60  62
ENDBRANCH  57  58
ENDBRANCH  54  57
ENDBRANCH  52  53
BRANCH  52  80
ATOM     80  CB  ILE A   4      12.311  12.929   0.565  0.00  0.00    +0.000 C 
ATOM     81  CG2 ILE A   4      12.057  14.404   1.158  0.00  0.00    +0.000 C 
BRANCH  80  82
ATOM     82  OG1 ILE A   4      13.705  12.624   0.588  0.00  0.00    +0.000 OA
ATOM     83  HG1 ILE A   4      13.851  11.722   0.206  0.00  0.00    +0.000 HD
ENDBRANCH  80  82
ENDBRANCH  52  80
ENDBRANCH  50  52
ENDBRANCH  47  48
BRANCH  47  84
ATOM     84  CB  ASN A   5      12.101   7.104   0.758  0.00  0.00    +0.000 C 
BRANCH  84  85
ATOM     85  CG  ASN A   5      13.601   7.329   0.639  0.00  0.00    +0.000 C 
ATOM     86  ND2 ASN A   5      14.360   6.870   1.624  0.00  0.00    +0.000 N 
ATOM     87 HD21 ASN A   5      13.929   6.343   2.410  0.00  0.00    +0.000 HD
ATOM     88 HD22 ASN A   5      15.386   7.037   1.610  0.00  0.00    +0.000 HD
ATOM     89  OD1 ASN A   5      14.064   7.964  -0.324  0.00  0.00    +0.000 OA
ENDBRANCH  84  85
ENDBRANCH  47  84
ENDBRANCH  45  47
ENDBRANCH   1  43
BRANCH   1  90
ATOM     90  C   UNK A   3       7.681   8.021   3.568  0.00  0.00    +0.000 C 
BRANCH  90  91
ATOM     91  C   UNK A   3       7.843   6.541   4.029  0.00  0.00    +0.000 C 
ATOM     92  O   UNK A   3       7.221   5.707   3.368  0.00  0.00    +0.000 OA
BRANCH  91  93
ATOM     93  O   UNK A   3       8.536   6.216   5.033  0.00  0.00    +0.000 OA
BRANCH  93  94
ATOM     94 MG   UNK A   3      10.262   6.705   6.014  0.00  0.00    +0.000 Mg
BRANCH  94  95
ATOM     95  O   UNK A   3       9.608   8.987   6.732  0.00  0.00    +0.000 OA
BRANCH  95  96
ATOM     96  C   UNK A   3       8.631   9.158   7.482  0.00  0.00    +0.000 C 
ATOM     97  O   UNK A   3       8.586   8.738   8.640  0.00  0.00    +0.000 OA
BRANCH  96  98
ATOM     98  C   UNK A   3       7.452   9.958   6.976  0.00  0.00    +0.000 C 
BRANCH  98  99
ATOM     99  C   UNK A   3       7.917  11.030   5.951  0.00  0.00    +0.000 C 
BRANCH  99 100
ATOM    100  C   UNK A   3       6.937  12.132   5.616  0.00  0.00    +0.000 C 
BRANCH 100 102
ATOM    101  C   PHE A   2       7.841  13.924   6.826  0.00  0.00    +0.000 C 
ATOM    102  N   UNK A   3       6.889  13.013   6.740  0.00  0.00    +0.000 N 
ATOM    103  H   UNK A   3       6.139  12.940   7.457  0.00  0.00    +0.000 HD
ATOM    104  O   PHE A   2       8.676  14.091   5.989  0.00  0.00    +0.000 OA
BRANCH 101 105
ATOM    105  CA  PHE A   2       7.830  14.719   8.046  0.00  0.00    +0.000 C 
BRANCH 105 108
ATOM    106  C   SER A   1       8.619  13.643  10.009  0.00  0.00    +0.000 C 
ATOM    107  O   SER A   1       7.512  13.680  10.563  0.00  0.00    +0.000 OA
ATOM    108  N   PHE A   2       8.863  14.100   8.805  0.00  0.00    +0.000 N 
ATOM    109  H   PHE A   2       9.817  14.010   8.402  0.00  0.00    +0.000 HD
BRANCH 106 110
ATOM    110  CA  SER A   1       9.784  12.942  10.645  0.00  0.00    +0.000 C 
BRANCH 110 111
ATOM    111  N   SER A   1       9.508  13.112  12.029  0.00  0.00    +0.000 NA
ATOM    112  H   SER A   1       8.921  12.404  12.515  0.00  0.00    +0.000 HD
ENDBRANCH 110 111
BRANCH 110 113
ATOM    113  CB  SER A   1       9.711  11.412  10.235  0.00  0.00    +0.000 C 
BRANCH 113 114
ATOM    114  CG  SER A   1      11.088  10.694  10.365  0.00  0.00    +0.000 C 
BRANCH 114 115
ATOM    115  SD  SER A   1      12.141  10.710   8.837  0.00  0.00    +0.000 S 
ATOM    116  CE  SER A   1      12.408   8.909   8.938  0.00  0.00    +0.000 C 
ENDBRANCH 114 115
ENDBRANCH 113 114
ENDBRANCH 110 113
ENDBRANCH 106 110
ENDBRANCH 105 108
BRANCH 105 117
ATOM    117  CB  PHE A   2       8.099  16.241   7.780  0.00  0.00    +0.000 C 
ATOM    118  CG2 PHE A   2       7.101  16.795   6.772  0.00  0.00    +0.000 C 
BRANCH 117 119
ATOM    119  CG1 PHE A   2       7.738  16.933   9.078  0.00  0.00    +0.000 C 
ATOM    120  CD1 PHE A   2       8.697  16.666  10.093  0.00  0.00    +0.000 C 
ENDBRANCH 117 119
ENDBRANCH 105 117
ENDBRANCH 101 105
ENDBRANCH 100 102
BRANCH 100 121
ATOM    121  C   UNK A   3       5.620  11.627   5.147  0.00  0.00    +0.000 C 
ATOM    122  N   ILE A   4       4.587  12.200   5.745  0.00  0.00    +0.000 N 
ATOM    123  H   ILE A   4       4.808  12.899   6.482  0.00  0.00    +0.000 HD
ATOM    124  O   UNK A   3       5.551  10.794   4.275  0.00  0.00    +0.000 OA
BRANCH 122 125
ATOM    125  CA  ILE A   4       3.169  11.956   5.481  0.00  0.00    +0.000 C 
BRANCH 125 126
ATOM    126  CB  ILE A   4       2.382  11.557   6.741  0.00  0.00    +0.000 C 
ATOM    127  CG2 ILE A   4       0.842  11.702   6.494  0.00  0.00    +0.000 C 
BRANCH 126 128
ATOM    128  CG1 ILE A   4       2.586  10.074   7.097  0.00  0.00    +0.000 C 
ATOM    129  CD1 ILE A   4       4.001   9.710   7.394  0.00  0.00    +0.000 C 
ENDBRANCH 126 128
ENDBRANCH 125 126
BRANCH 125 130
ATOM    130  C   ILE A   4       2.746  13.388   5.061  0.00  0.00    +0.000 C 
ATOM    131  O   ILE A   4       3.035  14.366   5.730  0.00  0.00    +0.000 OA
ENDBRANCH 125 130
ENDBRANCH 122 125
ENDBRANCH 100 121
ENDBRANCH  99 100
ENDBRANCH  98  99
ENDBRANCH  96  98
ENDBRANCH  95  96
ENDBRANCH  94  95
ENDBRANCH  93  94
ENDBRANCH  91  93
ENDBRANCH  90  91
ENDBRANCH   1  90
TORSDOF 62
REMARK  Name = ../refined-set-2016/1kc7/1kc7_pocket.pdb
REMARK  150 active torsions:
REMARK  status: ('A' for Active; 'I' for Inactive)
REMARK    1  A    between atoms: _1  and  _3
REMARK    2  A    between atoms: _3  and  _4
REMARK    3  A    between atoms: _3  and  _6
REMARK    4  A    between atoms: _6  and  _7
REMARK    5  A    between atoms: _12  and  _14
REMARK    6  A    between atoms: _14  and  _15
REMARK    7  A    between atoms: _14  and  _17
REMARK    8  A    between atoms: _17  and  _18
REMARK    9  A    between atoms: _21  and  _23
REMARK   10  A    between atoms: _23  and  _24
REMARK   11  A    between atoms: _26  and  _28
REMARK   12  A    between atoms: _28  and  _29
REMARK   13  A    between atoms: _28  and  _31
REMARK   14  A    between atoms: _31  and  _32
REMARK   15  A    between atoms: _35  and  _37
REMARK   16  A    between atoms: _37  and  _38
REMARK   17  A    between atoms: _37  and  _40
REMARK   18  A    between atoms: _42  and  _44
REMARK   19  A    between atoms: _44  and  _45
REMARK   20  A    between atoms: _44  and  _47
REMARK   21  A    between atoms: _47  and  _48
REMARK   22  A    between atoms: _48  and  _49
REMARK   23  A    between atoms: _49  and  _50
REMARK   24  A    between atoms: _59  and  _61
REMARK   25  A    between atoms: _61  and  _62
REMARK   26  A    between atoms: _61  and  _64
REMARK   27  A    between atoms: _64  and  _65
REMARK   28  A    between atoms: _68  and  _70
REMARK   29  A    between atoms: _70  and  _71
REMARK   30  A    between atoms: _70  and  _73
REMARK   31  A    between atoms: _73  and  _74
REMARK   32  A    between atoms: _74  and  _75
REMARK   33  A    between atoms: _78  and  _80
REMARK   34  A    between atoms: _80  and  _81
REMARK   35  A    between atoms: _80  and  _83
REMARK   36  A    between atoms: _83  and  _84
REMARK   37  A    between atoms: _84  and  _85
REMARK   38  A    between atoms: _85  and  _86
REMARK   39  A    between atoms: _95  and  _97
REMARK   40  A    between atoms: _97  and  _98
REMARK   41  A    between atoms: _97  and  _100
REMARK   42  A    between atoms: _100  and  _101
REMARK   43  A    between atoms: _104  and  _106
REMARK   44  A    between atoms: _106  and  _107
REMARK   45  A    between atoms: _106  and  _109
REMARK   46  A    between atoms: _109  and  _110
REMARK   47  A    between atoms: _110  and  _111
REMARK   48  A    between atoms: _111  and  _112
REMARK   49  A    between atoms: _121  and  _123
REMARK   50  A    between atoms: _123  and  _124
REMARK   51  A    between atoms: _123  and  _126
REMARK   52  A    between atoms: _126  and  _127
REMARK   53  A    between atoms: _127  and  _128
REMARK   54  A    between atoms: _131  and  _132
REMARK   55  A    between atoms: _137  and  _139
REMARK   56  A    between atoms: _139  and  _140
REMARK   57  A    between atoms: _139  and  _142
REMARK   58  A    between atoms: _142  and  _143
REMARK   59  A    between atoms: _146  and  _148
REMARK   60  A    between atoms: _148  and  _149
REMARK   61  A    between atoms: _148  and  _151
REMARK   62  A    between atoms: _151  and  _152
REMARK   63  A    between atoms: _152  and  _153
REMARK   64  A    between atoms: _155  and  _157
REMARK   65  A    between atoms: _157  and  _158
REMARK   66  A    between atoms: _157  and  _160
REMARK   67  A    between atoms: _160  and  _161
REMARK   68  A    between atoms: _164  and  _166
REMARK   69  A    between atoms: _166  and  _167
REMARK   70  A    between atoms: _166  and  _169
REMARK   71  A    between atoms: _169  and  _170
REMARK   72  A    between atoms: _170  and  _171
REMARK   73  A    between atoms: _171  and  _172
REMARK   74  A    between atoms: _172  and  MG_348
REMARK   75  A    between atoms: _174  and  _176
REMARK   76  A    between atoms: _176  and  _177
REMARK   77  A    between atoms: _176  and  _179
REMARK   78  A    between atoms: _179  and  _180
REMARK   79  A    between atoms: _183  and  _185
REMARK   80  A    between atoms: _185  and  _186
REMARK   81  A    between atoms: _185  and  _188
REMARK   82  A    between atoms: _188  and  _189
REMARK   83  A    between atoms: _191  and  _193
REMARK   84  A    between atoms: _193  and  _194
REMARK   85  A    between atoms: _193  and  _196
REMARK   86  A    between atoms: _196  and  _197
REMARK   87  A    between atoms: _203  and  _205
REMARK   88  A    between atoms: _205  and  _206
REMARK   89  A    between atoms: _208  and  _210
REMARK   90  A    between atoms: _210  and  _211
REMARK   91  A    between atoms: _210  and  _213
REMARK   92  A    between atoms: _213  and  _214
REMARK   93  A    between atoms: _217  and  _219
REMARK   94  A    between atoms: _219  and  _220
REMARK   95  A    between atoms: _219  and  _222
REMARK   96  A    between atoms: _222  and  _223
REMARK   97  A    between atoms: _228  and  _230
REMARK   98  A    between atoms: _230  and  _231
REMARK   99  A    between atoms: _230  and  _233
REMARK  100  A    between atoms: _233  and  _234
REMARK  101  A    between atoms: _234  and  _236
REMARK  102  A    between atoms: _236  and  MG_348
REMARK  103  A    between atoms: _237  and  _239
REMARK  104  A    between atoms: _239  and  _240
REMARK  105  A    between atoms: _239  and  _242
REMARK  106  A    between atoms: _242  and  _243
REMARK  107  A    between atoms: _246  and  _248
REMARK  108  A    between atoms: _248  and  _249
REMARK  109  A    between atoms: _248  and  _251
REMARK  110  A    between atoms: _251  and  _252
REMARK  111  A    between atoms: _255  and  _257
REMARK  112  A    between atoms: _257  and  _258
REMARK  113  A    between atoms: _257  and  _260
REMARK  114  A    between atoms: _260  and  _261
REMARK  115  A    between atoms: _261  and  _262
REMARK  116  A    between atoms: _267  and  _269
REMARK  117  A    between atoms: _269  and  _270
REMARK  118  A    between atoms: _269  and  _272
REMARK  119  A    between atoms: _272  and  _273
REMARK  120  A    between atoms: _273  and  _274
REMARK  121  A    between atoms: _276  and  _278
REMARK  122  A    between atoms: _278  and  _279
REMARK  123  A    between atoms: _278  and  _281
REMARK  124  A    between atoms: _281  and  _282
REMARK  125  A    between atoms: _282  and  _283
REMARK  126  A    between atoms: _283  and  _284
REMARK  127  A    between atoms: _293  and  _295
REMARK  128  A    between atoms: _295  and  _296
REMARK  129  A    between atoms: _295  and  _298
REMARK  130  A    between atoms: _298  and  _299
REMARK  131  A    between atoms: _302  and  _304
REMARK  132  A    between atoms: _304  and  _305
REMARK  133  A    between atoms: _304  and  _307
REMARK  134  A    between atoms: _309  and  _311
REMARK  135  A    between atoms: _311  and  _312
REMARK  136  A    between atoms: _314  and  _316
REMARK  137  A    between atoms: _316  and  _317
REMARK  138  A    between atoms: _316  and  _319
REMARK  139  A    between atoms: _319  and  _320
REMARK  140  A    between atoms: _320  and  _321
REMARK  141  A    between atoms: _324  and  _326
REMARK  142  A    between atoms: _326  and  _327
REMARK  143  A    between atoms: _326  and  _329
REMARK  144  A    between atoms: _329  and  _330
REMARK  145  A    between atoms: _335  and  _337
REMARK  146  A    between atoms: _337  and  _338
REMARK  147  A    between atoms: _340  and  _342
REMARK  148  A    between atoms: _342  and  _343
REMARK  149  A    between atoms: _342  and  _345
REMARK  150  A    between atoms: _345  and  _346
REMARK                            x       y       z     vdW  Elec       q    Type
REMARK                         _______ _______ _______ _____ _____    ______ ____
ROOT
ATOM      1  NE  ARG A   1      13.597   3.461  -6.067  0.00  0.00    +0.330 N 
ATOM      2  CZ  ARG A   1      14.837   3.888  -5.837  0.00  0.00    +0.000 C 
ATOM      3  NH2 ARG A   1      15.262   4.040  -4.584  0.00  0.00    +0.330 N 
ATOM      4 HH21 ARG A   1      14.626   3.825  -3.790  0.00  0.00    +0.000 HD
ATOM      5 HH22 ARG A   1      16.230   4.373  -4.400  0.00  0.00    +0.000 HD
ATOM      6  NH1 ARG A   1      15.646   4.170  -6.853  0.00  0.00    +0.330 N 
ATOM      7 HH11 ARG A   1      16.614   4.503  -6.670  0.00  0.00    +0.000 HD
ATOM      8 HH12 ARG A   1      15.311   4.057  -7.831  0.00  0.00    +0.000 HD
ATOM      9  HE  ARG A   1      13.295   3.350  -7.056  0.00  0.00    +0.000 HD
ENDROOT
BRANCH   1  10
ATOM     10  CD  ARG A   1      12.628   3.136  -5.010  0.00  0.00    +0.000 C 
BRANCH  10  11
ATOM     11  CG  ARG A   1      11.232   2.942  -5.585  0.00  0.00    +0.000 C 
BRANCH  11  12
ATOM     12  CB  ARG A   1      10.104   2.897  -4.552  0.00  0.00    +0.000 C 
BRANCH  12  13
ATOM     13  CA  ARG A   1       8.774   2.573  -5.231  0.00  0.00    +0.000 C 
BRANCH  13  14
ATOM     14  N   ARG A   1       7.663   2.658  -4.297  0.00  0.00    +0.000 NA
ATOM     15  H   ARG A   1       7.815   2.876  -3.292  0.00  0.00    +0.000 HD
ENDBRANCH  13  14
BRANCH  13  16
ATOM     16  C   ARG A   1       8.846   1.132  -5.747  0.00  0.00    +0.000 C 
ATOM     17  O   ARG A   1       9.074   0.866  -6.910  0.00  0.00    +0.000 OA
ENDBRANCH  13  16
ENDBRANCH  12  13
ENDBRANCH  11  12
ENDBRANCH  10  11
ENDBRANCH   1  10
TORSDOF 6
REMARK  Name = ../refined-set-2016/1kc7/1kc7_pocket.pdb
REMARK  150 active torsions:
REMARK  status: ('A' for Active; 'I' for Inactive)
REMARK    1  A    between atoms: _1  and  _3
REMARK    2  A    between atoms: _3  and  _4
REMARK    3  A    between atoms: _3  and  _6
REMARK    4  A    between atoms: _6  and  _7
REMARK    5  A    between atoms: _12  and  _14
REMARK    6  A    between atoms: _14  and  _15
REMARK    7  A    between atoms: _14  and  _17
REMARK    8  A    between atoms: _17  and  _18
REMARK    9  A    between atoms: _21  and  _23
REMARK   10  A    between atoms: _23  and  _24
REMARK   11  A    between atoms: _26  and  _28
REMARK   12  A    between atoms: _28  and  _29
REMARK   13  A    between atoms: _28  and  _31
REMARK   14  A    between atoms: _31  and  _32
REMARK   15  A    between atoms: _35  and  _37
REMARK   16  A    between atoms: _37  and  _38
REMARK   17  A    between atoms: _37  and  _40
REMARK   18  A    between atoms: _42  and  _44
REMARK   19  A    between atoms: _44  and  _45
REMARK   20  A    between atoms: _44  and  _47
REMARK   21  A    between atoms: _47  and  _48
REMARK   22  A    between atoms: _48  and  _49
REMARK   23  A    between atoms: _49  and  _50
REMARK   24  A    between atoms: _59  and  _61
REMARK   25  A    between atoms: _61  and  _62
REMARK   26  A    between atoms: _61  and  _64
REMARK   27  A    between atoms: _64  and  _65
REMARK   28  A    between atoms: _68  and  _70
REMARK   29  A    between atoms: _70  and  _71
REMARK   30  A    between atoms: _70  and  _73
REMARK   31  A    between atoms: _73  and  _74
REMARK   32  A    between atoms: _74  and  _75
REMARK   33  A    between atoms: _78  and  _80
REMARK   34  A    between atoms: _80  and  _81
REMARK   35  A    between atoms: _80  and  _83
REMARK   36  A    between atoms: _83  and  _84
REMARK   37  A    between atoms: _84  and  _85
REMARK   38  A    between atoms: _85  and  _86
REMARK   39  A    between atoms: _95  and  _97
REMARK   40  A    between atoms: _97  and  _98
REMARK   41  A    between atoms: _97  and  _100
REMARK   42  A    between atoms: _100  and  _101
REMARK   43  A    between atoms: _104  and  _106
REMARK   44  A    between atoms: _106  and  _107
REMARK   45  A    between atoms: _106  and  _109
REMARK   46  A    between atoms: _109  and  _110
REMARK   47  A    between atoms: _110  and  _111
REMARK   48  A    between atoms: _111  and  _112
REMARK   49  A    between atoms: _121  and  _123
REMARK   50  A    between atoms: _123  and  _124
REMARK   51  A    between atoms: _123  and  _126
REMARK   52  A    between atoms: _126  and  _127
REMARK   53  A    between atoms: _127  and  _128
REMARK   54  A    between atoms: _131  and  _132
REMARK   55  A    between atoms: _137  and  _139
REMARK   56  A    between atoms: _139  and  _140
REMARK   57  A    between atoms: _139  and  _142
REMARK   58  A    between atoms: _142  and  _143
REMARK   59  A    between atoms: _146  and  _148
REMARK   60  A    between atoms: _148  and  _149
REMARK   61  A    between atoms: _148  and  _151
REMARK   62  A    between atoms: _151  and  _152
REMARK   63  A    between atoms: _152  and  _153
REMARK   64  A    between atoms: _155  and  _157
REMARK   65  A    between atoms: _157  and  _158
REMARK   66  A    between atoms: _157  and  _160
REMARK   67  A    between atoms: _160  and  _161
REMARK   68  A    between atoms: _164  and  _166
REMARK   69  A    between atoms: _166  and  _167
REMARK   70  A    between atoms: _166  and  _169
REMARK   71  A    between atoms: _169  and  _170
REMARK   72  A    between atoms: _170  and  _171
REMARK   73  A    between atoms: _171  and  _172
REMARK   74  A    between atoms: _172  and  MG_348
REMARK   75  A    between atoms: _174  and  _176
REMARK   76  A    between atoms: _176  and  _177
REMARK   77  A    between atoms: _176  and  _179
REMARK   78  A    between atoms: _179  and  _180
REMARK   79  A    between atoms: _183  and  _185
REMARK   80  A    between atoms: _185  and  _186
REMARK   81  A    between atoms: _185  and  _188
REMARK   82  A    between atoms: _188  and  _189
REMARK   83  A    between atoms: _191  and  _193
REMARK   84  A    between atoms: _193  and  _194
REMARK   85  A    between atoms: _193  and  _196
REMARK   86  A    between atoms: _196  and  _197
REMARK   87  A    between atoms: _203  and  _205
REMARK   88  A    between atoms: _205  and  _206
REMARK   89  A    between atoms: _208  and  _210
REMARK   90  A    between atoms: _210  and  _211
REMARK   91  A    between atoms: _210  and  _213
REMARK   92  A    between atoms: _213  and  _214
REMARK   93  A    between atoms: _217  and  _219
REMARK   94  A    between atoms: _219  and  _220
REMARK   95  A    between atoms: _219  and  _222
REMARK   96  A    between atoms: _222  and  _223
REMARK   97  A    between atoms: _228  and  _230
REMARK   98  A    between atoms: _230  and  _231
REMARK   99  A    between atoms: _230  and  _233
REMARK  100  A    between atoms: _233  and  _234
REMARK  101  A    between atoms: _234  and  _236
REMARK  102  A    between atoms: _236  and  MG_348
REMARK  103  A    between atoms: _237  and  _239
REMARK  104  A    between atoms: _239  and  _240
REMARK  105  A    between atoms: _239  and  _242
REMARK  106  A    between atoms: _242  and  _243
REMARK  107  A    between atoms: _246  and  _248
REMARK  108  A    between atoms: _248  and  _249
REMARK  109  A    between atoms: _248  and  _251
REMARK  110  A    between atoms: _251  and  _252
REMARK  111  A    between atoms: _255  and  _257
REMARK  112  A    between atoms: _257  and  _258
REMARK  113  A    between atoms: _257  and  _260
REMARK  114  A    between atoms: _260  and  _261
REMARK  115  A    between atoms: _261  and  _262
REMARK  116  A    between atoms: _267  and  _269
REMARK  117  A    between atoms: _269  and  _270
REMARK  118  A    between atoms: _269  and  _272
REMARK  119  A    between atoms: _272  and  _273
REMARK  120  A    between atoms: _273  and  _274
REMARK  121  A    between atoms: _276  and  _278
REMARK  122  A    between atoms: _278  and  _279
REMARK  123  A    between atoms: _278  and  _281
REMARK  124  A    between atoms: _281  and  _282
REMARK  125  A    between atoms: _282  and  _283
REMARK  126  A    between atoms: _283  and  _284
REMARK  127  A    between atoms: _293  and  _295
REMARK  128  A    between atoms: _295  and  _296
REMARK  129  A    between atoms: _295  and  _298
REMARK  130  A    between atoms: _298  and  _299
REMARK  131  A    between atoms: _302  and  _304
REMARK  132  A    between atoms: _304  and  _305
REMARK  133  A    between atoms: _304  and  _307
REMARK  134  A    between atoms: _309  and  _311
REMARK  135  A    between atoms: _311  and  _312
REMARK  136  A    between atoms: _314  and  _316
REMARK  137  A    between atoms: _316  and  _317
REMARK  138  A    between atoms: _316  and  _319
REMARK  139  A    between atoms: _319  and  _320
REMARK  140  A    between atoms: _320  and  _321
REMARK  141  A    between atoms: _324  and  _326
REMARK  142  A    between atoms: _326  and  _327
REMARK  143  A    between atoms: _326  and  _329
REMARK  144  A    between atoms: _329  and  _330
REMARK  145  A    between atoms: _335  and  _337
REMARK  146  A    between atoms: _337  and  _338
REMARK  147  A    between atoms: _340  and  _342
REMARK  148  A    between atoms: _342  and  _343
REMARK  149  A    between atoms: _342  and  _345
REMARK  150  A    between atoms: _345  and  _346
REMARK                            x       y       z     vdW  Elec       q    Type
REMARK                         _______ _______ _______ _____ _____    ______ ____
ROOT
ATOM      1  CA  GLU A   4      17.520   9.306  -0.669  0.00  0.00    +0.000 C 
ENDROOT
BRANCH   1   4
ATOM      2  C   GLY A   3      16.531  10.154   1.372  0.00  0.00    +0.000 C 
ATOM      3  O   GLY A   3      17.545  10.800   1.610  0.00  0.00    +0.000 OA
ATOM      4  N   GLU A   4      16.423   9.433   0.268  0.00  0.00    +0.000 N 
ATOM      5  H   GLU A   4      15.527   8.945   0.068  0.00  0.00    +0.000 HD
BRANCH   2   6
ATOM      6  CA  GLY A   3      15.330  10.191   2.339  0.00  0.00    +0.000 C 
BRANCH   6   9
ATOM      7  C   CYS A   2      16.774  10.775   4.187  0.00  0.00    +0.000 C 
ATOM      8  O   CYS A   2      17.270   9.671   4.195  0.00  0.00    +0.000 OA
ATOM      9  N   GLY A   3      15.788  11.110   3.362  0.00  0.00    +0.000 N 
ATOM     10  H   GLY A   3      15.339  12.044   3.451  0.00  0.00    +0.000 HD
BRANCH   7  11
ATOM     11  CA  CYS A   2      17.279  11.857   5.139  0.00  0.00    +0.000 C 
BRANCH  11  14
ATOM     12  C   ILE A   1      17.134  14.266   5.141  0.00  0.00    +0.000 C 
ATOM     13  O   ILE A   1      18.366  14.299   5.216  0.00  0.00    +0.000 OA
ATOM     14  N   CYS A   2      16.487  13.105   5.081  0.00  0.00    +0.000 N 
ATOM     15  H   CYS A   2      15.451  13.076   4.996  0.00  0.00    +0.000 HD
BRANCH  12  16
ATOM     16  CA  ILE A   1      16.323  15.577   5.127  0.00  0.00    +0.000 C 
BRANCH  16  17
ATOM     17  CB  ILE A   1      16.381  16.408   3.740  0.00  0.00    +0.000 C 
ATOM     18  CG2 ILE A   1      17.839  16.590   3.265  0.00  0.00    +0.000 C 
BRANCH  17  19
ATOM     19  CG1 ILE A   1      15.534  15.782   2.617  0.00  0.00    +0.000 C 
ATOM     20  CD1 ILE A   1      15.824  14.348   2.286  0.00  0.00    +0.000 C 
ENDBRANCH  17  19
ENDBRANCH  16  17
BRANCH  16  21
ATOM     21  N   ILE A   1      16.957  16.407   6.170  0.00  0.00    +0.000 NA
ATOM     22  H   ILE A   1      17.985  16.341   6.312  0.00  0.00    +0.000 HD
ENDBRANCH  16  21
ENDBRANCH  12  16
ENDBRANCH  11  14
BRANCH  11  23
ATOM     23  CB  CYS A   2      17.293  11.292   6.569  0.00  0.00    +0.000 C 
ATOM     24  SG  CYS A   2      15.606  10.840   7.167  0.00  0.00    +0.000 S 
ENDBRANCH  11  23
ENDBRANCH   7  11
ENDBRANCH   6   9
ENDBRANCH   2   6
ENDBRANCH   1   4
BRANCH   1  25
ATOM     25  C   GLU A   4      17.948  10.618  -1.283  0.00  0.00    +0.000 C 
ATOM     26  N   HIS A   5      16.986  11.482  -1.458  0.00  0.00    +0.000 N 
ATOM     27  H   HIS A   5      16.012  11.244  -1.182  0.00  0.00    +0.000 HD
ATOM     28  O   GLU A   4      19.124  10.856  -1.595  0.00  0.00    +0.000 OA
BRANCH  26  29
ATOM     29  CA  HIS A   5      17.286  12.787  -2.045  0.00  0.00    +0.000 C 
BRANCH  29  30
ATOM     30  C   HIS A   5      18.401  13.596  -1.404  0.00  0.00    +0.000 C 
ATOM     31  N   GLY A   6      18.597  13.445  -0.088  0.00  0.00    +0.000 N 
ATOM     32  H   GLY A   6      17.984  12.787   0.435  0.00  0.00    +0.000 HD
ATOM     33  O   HIS A   5      19.096  14.306  -2.091  0.00  0.00    +0.000 OA
BRANCH  31  34
ATOM     34  CA  GLY A   6      19.628  14.161   0.639  0.00  0.00    +0.000 C 
BRANCH  34  35
ATOM     35  C   GLY A   6      21.031  14.095   0.059  0.00  0.00    +0.000 C 
ATOM     36  O   GLY A   6      21.911  14.807   0.465  0.00  0.00    +0.000 OA
ENDBRANCH  34  35
ENDBRANCH  31  34
ENDBRANCH  29  30
BRANCH  29  37
ATOM     37  CB  HIS A   5      16.000  13.556  -2.100  0.00  0.00    +0.000 C 
BRANCH  37  38
ATOM     38  CG  HIS A   5      14.872  12.744  -2.667  0.00  0.00    +0.000 A 
ATOM     39  ND1 HIS A   5      13.985  12.053  -1.874  0.00  0.00    +0.000 NA
ATOM     40  CE1 HIS A   5      13.124  11.404  -2.645  0.00  0.00    +0.000 A 
ATOM     41  NE2 HIS A   5      13.421  11.644  -3.912  0.00  0.00    +0.000 NA
ATOM     42  CD2 HIS A   5      14.515  12.480  -3.954  0.00  0.00    +0.000 A 
ENDBRANCH  37  38
ENDBRANCH  29  37
ENDBRANCH  26  29
ENDBRANCH   1  25
BRANCH   1  43
ATOM     43  CB  GLU A   4      17.133   8.357  -1.775  0.00  0.00    +0.000 C 
BRANCH  43  44
ATOM     44  CG  GLU A   4      18.187   8.250  -2.858  0.00  0.00    +0.000 C 
BRANCH  44  45
ATOM     45  CD  GLU A   4      18.073   6.950  -3.571  0.00  0.00    +0.000 C 
ATOM     46  OE2 GLU A   4      18.193   5.932  -2.865  0.00  0.00    +0.000 OA
ATOM     47  OE1 GLU A   4      17.856   6.940  -4.805  0.00  0.00    +0.000 OA
ENDBRANCH  44  45
ENDBRANCH  43  44
ENDBRANCH   1  43
TORSDOF 20
REMARK  Name = ../refined-set-2016/1kc7/1kc7_pocket.pdb
REMARK  150 active torsions:
REMARK  status: ('A' for Active; 'I' for Inactive)
REMARK    1  A    between atoms: _1  and  _3
REMARK    2  A    between atoms: _3  and  _4
REMARK    3  A    between atoms: _3  and  _6
REMARK    4  A    between atoms: _6  and  _7
REMARK    5  A    between atoms: _12  and  _14
REMARK    6  A    between atoms: _14  and  _15
REMARK    7  A    between atoms: _14  and  _17
REMARK    8  A    between atoms: _17  and  _18
REMARK    9  A    between atoms: _21  and  _23
REMARK   10  A    between atoms: _23  and  _24
REMARK   11  A    between atoms: _26  and  _28
REMARK   12  A    between atoms: _28  and  _29
REMARK   13  A    between atoms: _28  and  _31
REMARK   14  A    between atoms: _31  and  _32
REMARK   15  A    between atoms: _35  and  _37
REMARK   16  A    between atoms: _37  and  _38
REMARK   17  A    between atoms: _37  and  _40
REMARK   18  A    between atoms: _42  and  _44
REMARK   19  A    between atoms: _44  and  _45
REMARK   20  A    between atoms: _44  and  _47
REMARK   21  A    between atoms: _47  and  _48
REMARK   22  A    between atoms: _48  and  _49
REMARK   23  A    between atoms: _49  and  _50
REMARK   24  A    between atoms: _59  and  _61
REMARK   25  A    between atoms: _61  and  _62
REMARK   26  A    between atoms: _61  and  _64
REMARK   27  A    between atoms: _64  and  _65
REMARK   28  A    between atoms: _68  and  _70
REMARK   29  A    between atoms: _70  and  _71
REMARK   30  A    between atoms: _70  and  _73
REMARK   31  A    between atoms: _73  and  _74
REMARK   32  A    between atoms: _74  and  _75
REMARK   33  A    between atoms: _78  and  _80
REMARK   34  A    between atoms: _80  and  _81
REMARK   35  A    between atoms: _80  and  _83
REMARK   36  A    between atoms: _83  and  _84
REMARK   37  A    between atoms: _84  and  _85
REMARK   38  A    between atoms: _85  and  _86
REMARK   39  A    between atoms: _95  and  _97
REMARK   40  A    between atoms: _97  and  _98
REMARK   41  A    between atoms: _97  and  _100
REMARK   42  A    between atoms: _100  and  _101
REMARK   43  A    between atoms: _104  and  _106
REMARK   44  A    between atoms: _106  and  _107
REMARK   45  A    between atoms: _106  and  _109
REMARK   46  A    between atoms: _109  and  _110
REMARK   47  A    between atoms: _110  and  _111
REMARK   48  A    between atoms: _111  and  _112
REMARK   49  A    between atoms: _121  and  _123
REMARK   50  A    between atoms: _123  and  _124
REMARK   51  A    between atoms: _123  and  _126
REMARK   52  A    between atoms: _126  and  _127
REMARK   53  A    between atoms: _127  and  _128
REMARK   54  A    between atoms: _131  and  _132
REMARK   55  A    between atoms: _137  and  _139
REMARK   56  A    between atoms: _139  and  _140
REMARK   57  A    between atoms: _139  and  _142
REMARK   58  A    between atoms: _142  and  _143
REMARK   59  A    between atoms: _146  and  _148
REMARK   60  A    between atoms: _148  and  _149
REMARK   61  A    between atoms: _148  and  _151
REMARK   62  A    between atoms: _151  and  _152
REMARK   63  A    between atoms: _152  and  _153
REMARK   64  A    between atoms: _155  and  _157
REMARK   65  A    between atoms: _157  and  _158
REMARK   66  A    between atoms: _157  and  _160
REMARK   67  A    between atoms: _160  and  _161
REMARK   68  A    between atoms: _164  and  _166
REMARK   69  A    between atoms: _166  and  _167
REMARK   70  A    between atoms: _166  and  _169
REMARK   71  A    between atoms: _169  and  _170
REMARK   72  A    between atoms: _170  and  _171
REMARK   73  A    between atoms: _171  and  _172
REMARK   74  A    between atoms: _172  and  MG_348
REMARK   75  A    between atoms: _174  and  _176
REMARK   76  A    between atoms: _176  and  _177
REMARK   77  A    between atoms: _176  and  _179
REMARK   78  A    between atoms: _179  and  _180
REMARK   79  A    between atoms: _183  and  _185
REMARK   80  A    between atoms: _185  and  _186
REMARK   81  A    between atoms: _185  and  _188
REMARK   82  A    between atoms: _188  and  _189
REMARK   83  A    between atoms: _191  and  _193
REMARK   84  A    between atoms: _193  and  _194
REMARK   85  A    between atoms: _193  and  _196
REMARK   86  A    between atoms: _196  and  _197
REMARK   87  A    between atoms: _203  and  _205
REMARK   88  A    between atoms: _205  and  _206
REMARK   89  A    between atoms: _208  and  _210
REMARK   90  A    between atoms: _210  and  _211
REMARK   91  A    between atoms: _210  and  _213
REMARK   92  A    between atoms: _213  and  _214
REMARK   93  A    between atoms: _217  and  _219
REMARK   94  A    between atoms: _219  and  _220
REMARK   95  A    between atoms: _219  and  _222
REMARK   96  A    between atoms: _222  and  _223
REMARK   97  A    between atoms: _228  and  _230
REMARK   98  A    between atoms: _230  and  _231
REMARK   99  A    between atoms: _230  and  _233
REMARK  100  A    between atoms: _233  and  _234
REMARK  101  A    between atoms: _234  and  _236
REMARK  102  A    between atoms: _236  and  MG_348
REMARK  103  A    between atoms: _237  and  _239
REMARK  104  A    between atoms: _239  and  _240
REMARK  105  A    between atoms: _239  and  _242
REMARK  106  A    between atoms: _242  and  _243
REMARK  107  A    between atoms: _246  and  _248
REMARK  108  A    between atoms: _248  and  _249
REMARK  109  A    between atoms: _248  and  _251
REMARK  110  A    between atoms: _251  and  _252
REMARK  111  A    between atoms: _255  and  _257
REMARK  112  A    between atoms: _257  and  _258
REMARK  113  A    between atoms: _257  and  _260
REMARK  114  A    between atoms: _260  and  _261
REMARK  115  A    between atoms: _261  and  _262
REMARK  116  A    between atoms: _267  and  _269
REMARK  117  A    between atoms: _269  and  _270
REMARK  118  A    between atoms: _269  and  _272
REMARK  119  A    between atoms: _272  and  _273
REMARK  120  A    between atoms: _273  and  _274
REMARK  121  A    between atoms: _276  and  _278
REMARK  122  A    between atoms: _278  and  _279
REMARK  123  A    between atoms: _278  and  _281
REMARK  124  A    between atoms: _281  and  _282
REMARK  125  A    between atoms: _282  and  _283
REMARK  126  A    between atoms: _283  and  _284
REMARK  127  A    between atoms: _293  and  _295
REMARK  128  A    between atoms: _295  and  _296
REMARK  129  A    between atoms: _295  and  _298
REMARK  130  A    between atoms: _298  and  _299
REMARK  131  A    between atoms: _302  and  _304
REMARK  132  A    between atoms: _304  and  _305
REMARK  133  A    between atoms: _304  and  _307
REMARK  134  A    between atoms: _309  and  _311
REMARK  135  A    between atoms: _311  and  _312
REMARK  136  A    between atoms: _314  and  _316
REMARK  137  A    between atoms: _316  and  _317
REMARK  138  A    between atoms: _316  and  _319
REMARK  139  A    between atoms: _319  and  _320
REMARK  140  A    between atoms: _320  and  _321
REMARK  141  A    between atoms: _324  and  _326
REMARK  142  A    between atoms: _326  and  _327
REMARK  143  A    between atoms: _326  and  _329
REMARK  144  A    between atoms: _329  and  _330
REMARK  145  A    between atoms: _335  and  _337
REMARK  146  A    between atoms: _337  and  _338
REMARK  147  A    between atoms: _340  and  _342
REMARK  148  A    between atoms: _342  and  _343
REMARK  149  A    between atoms: _342  and  _345
REMARK  150  A    between atoms: _345  and  _346
REMARK                            x       y       z     vdW  Elec       q    Type
REMARK                         _______ _______ _______ _____ _____    ______ ____
ROOT
ATOM      1  CA  SER A   1      24.889   7.688   3.152  0.00  0.00    +0.000 C 
ENDROOT
BRANCH   1   2
ATOM      2  N   SER A   1      24.006   8.826   2.839  0.00  0.00    +0.000 NA
ATOM      3  H   SER A   1      23.391   8.770   2.002  0.00  0.00    +0.000 HD
ENDBRANCH   1   2
BRANCH   1   4
ATOM      4  CB  SER A   1      26.361   8.152   3.228  0.00  0.00    +0.000 C 
ATOM      5  OG  SER A   1      26.746   9.101   2.559  0.00  0.00    +0.000 OA
ENDBRANCH   1   4
BRANCH   1   6
ATOM      6  C   SER A   1      24.748   6.607   2.081  0.00  0.00    +0.000 C 
BRANCH   6   7
ATOM      7  O   SER A   1      23.446   6.076   2.136  0.00  0.00    +0.000 OA
ATOM      8  H   SER A   1      23.347   5.375   1.444  0.00  0.00    +0.000 HD
ENDBRANCH   6   7
ENDBRANCH   1   6
TORSDOF 4
