REMARK  Name = ../refined-set-2016/1qbt/1qbt_pocket.pdb
REMARK  248 active torsions:
REMARK  status: ('A' for Active; 'I' for Inactive)
REMARK    1  A    between atoms: _1  and  _3
REMARK    2  A    between atoms: _3  and  _4
REMARK    3  A    between atoms: _3  and  _6
REMARK    4  A    between atoms: _6  and  _7
REMARK    5  A    between atoms: _7  and  _8
REMARK    6  A    between atoms: _8  and  _9
REMARK    7  A    between atoms: _18  and  _20
REMARK    8  A    between atoms: _20  and  _21
REMARK    9  A    between atoms: _20  and  _23
REMARK   10  A    between atoms: _23  and  _24
REMARK   11  A    between atoms: _27  and  _29
REMARK   12  A    between atoms: _29  and  _30
REMARK   13  A    between atoms: _29  and  _32
REMARK   14  A    between atoms: _32  and  _33
REMARK   15  A    between atoms: _36  and  _38
REMARK   16  A    between atoms: _38  and  _39
REMARK   17  A    between atoms: _38  and  _41
REMARK   18  A    between atoms: _41  and  _42
REMARK   19  A    between atoms: _45  and  _47
REMARK   20  A    between atoms: _47  and  _48
REMARK   21  A    between atoms: _47  and  _50
REMARK   22  A    between atoms: _50  and  _51
REMARK   23  A    between atoms: _54  and  _56
REMARK   24  A    between atoms: _56  and  _57
REMARK   25  A    between atoms: _59  and  _61
REMARK   26  A    between atoms: _61  and  _62
REMARK   27  A    between atoms: _65  and  _67
REMARK   28  A    between atoms: _67  and  _68
REMARK   29  A    between atoms: _67  and  _70
REMARK   30  A    between atoms: _70  and  _71
REMARK   31  A    between atoms: _74  and  _76
REMARK   32  A    between atoms: _76  and  _77
REMARK   33  A    between atoms: _76  and  _79
REMARK   34  A    between atoms: _79  and  _80
REMARK   35  A    between atoms: _83  and  _85
REMARK   36  A    between atoms: _85  and  _86
REMARK   37  A    between atoms: _85  and  _88
REMARK   38  A    between atoms: _88  and  _89
REMARK   39  A    between atoms: _92  and  _94
REMARK   40  A    between atoms: _94  and  _95
REMARK   41  A    between atoms: _94  and  _97
REMARK   42  A    between atoms: _100  and  _102
REMARK   43  A    between atoms: _102  and  _103
REMARK   44  A    between atoms: _102  and  _105
REMARK   45  A    between atoms: _105  and  _106
REMARK   46  A    between atoms: _109  and  _111
REMARK   47  A    between atoms: _111  and  _112
REMARK   48  A    between atoms: _111  and  _114
REMARK   49  A    between atoms: _114  and  _115
REMARK   50  A    between atoms: _115  and  _116
REMARK   51  A    between atoms: _116  and  _117
REMARK   52  A    between atoms: _117  and  _118
REMARK   53  A    between atoms: _122  and  _124
REMARK   54  A    between atoms: _124  and  _125
REMARK   55  A    between atoms: _124  and  _127
REMARK   56  A    between atoms: _127  and  _128
REMARK   57  A    between atoms: _128  and  _129
REMARK   58  A    between atoms: _131  and  _133
REMARK   59  A    between atoms: _133  and  _134
REMARK   60  A    between atoms: _133  and  _136
REMARK   61  A    between atoms: _136  and  _137
REMARK   62  A    between atoms: _140  and  _142
REMARK   63  A    between atoms: _142  and  _143
REMARK   64  A    between atoms: _145  and  _147
REMARK   65  A    between atoms: _147  and  _148
REMARK   66  A    between atoms: _150  and  _152
REMARK   67  A    between atoms: _152  and  _153
REMARK   68  A    between atoms: _152  and  _155
REMARK   69  A    between atoms: _155  and  _156
REMARK   70  A    between atoms: _159  and  _161
REMARK   71  A    between atoms: _161  and  _162
REMARK   72  A    between atoms: _164  and  _166
REMARK   73  A    between atoms: _166  and  _167
REMARK   74  A    between atoms: _169  and  _171
REMARK   75  A    between atoms: _171  and  _172
REMARK   76  A    between atoms: _171  and  _174
REMARK   77  A    between atoms: _174  and  _175
REMARK   78  A    between atoms: _181  and  _183
REMARK   79  A    between atoms: _183  and  _184
REMARK   80  A    between atoms: _183  and  _186
REMARK   81  A    between atoms: _186  and  _187
REMARK   82  A    between atoms: _190  and  _192
REMARK   83  A    between atoms: _192  and  _193
REMARK   84  A    between atoms: _192  and  _195
REMARK   85  A    between atoms: _195  and  _196
REMARK   86  A    between atoms: _196  and  _197
REMARK   87  A    between atoms: _202  and  _204
REMARK   88  A    between atoms: _204  and  _205
REMARK   89  A    between atoms: _204  and  _207
REMARK   90  A    between atoms: _207  and  _208
REMARK   91  A    between atoms: _212  and  _213
REMARK   92  A    between atoms: _218  and  _220
REMARK   93  A    between atoms: _220  and  _221
REMARK   94  A    between atoms: _220  and  _223
REMARK   95  A    between atoms: _223  and  _224
REMARK   96  A    between atoms: _228  and  _229
REMARK   97  A    between atoms: _234  and  _236
REMARK   98  A    between atoms: _236  and  _237
REMARK   99  A    between atoms: _236  and  _239
REMARK  100  A    between atoms: _242  and  _244
REMARK  101  A    between atoms: _244  and  _245
REMARK  102  A    between atoms: _244  and  _247
REMARK  103  A    between atoms: _247  and  _248
REMARK  104  A    between atoms: _253  and  _255
REMARK  105  A    between atoms: _255  and  _256
REMARK  106  A    between atoms: _255  and  _258
REMARK  107  A    between atoms: _258  and  _259
REMARK  108  A    between atoms: _262  and  _264
REMARK  109  A    between atoms: _264  and  _265
REMARK  110  A    between atoms: _264  and  _267
REMARK  111  A    between atoms: _267  and  _268
REMARK  112  A    between atoms: _271  and  _273
REMARK  113  A    between atoms: _273  and  _274
REMARK  114  A    between atoms: _276  and  _278
REMARK  115  A    between atoms: _278  and  _279
REMARK  116  A    between atoms: _278  and  _281
REMARK  117  A    between atoms: _281  and  _282
REMARK  118  A    between atoms: _282  and  _283
REMARK  119  A    between atoms: _283  and  _284
REMARK  120  A    between atoms: _293  and  _295
REMARK  121  A    between atoms: _295  and  _296
REMARK  122  A    between atoms: _295  and  _298
REMARK  123  A    between atoms: _298  and  _299
REMARK  124  A    between atoms: _304  and  _306
REMARK  125  A    between atoms: _306  and  _307
REMARK  126  A    between atoms: _306  and  _309
REMARK  127  A    between atoms: _309  and  _310
REMARK  128  A    between atoms: _310  and  _311
REMARK  129  A    between atoms: _311  and  _312
REMARK  130  A    between atoms: _321  and  _323
REMARK  131  A    between atoms: _323  and  _324
REMARK  132  A    between atoms: _323  and  _326
REMARK  133  A    between atoms: _326  and  _327
REMARK  134  A    between atoms: _330  and  _332
REMARK  135  A    between atoms: _332  and  _333
REMARK  136  A    between atoms: _332  and  _335
REMARK  137  A    between atoms: _335  and  _336
REMARK  138  A    between atoms: _339  and  _341
REMARK  139  A    between atoms: _341  and  _342
REMARK  140  A    between atoms: _341  and  _344
REMARK  141  A    between atoms: _344  and  _345
REMARK  142  A    between atoms: _348  and  _350
REMARK  143  A    between atoms: _350  and  _351
REMARK  144  A    between atoms: _350  and  _353
REMARK  145  A    between atoms: _353  and  _354
REMARK  146  A    between atoms: _357  and  _359
REMARK  147  A    between atoms: _359  and  _360
REMARK  148  A    between atoms: _362  and  _364
REMARK  149  A    between atoms: _364  and  _365
REMARK  150  A    between atoms: _368  and  _370
REMARK  151  A    between atoms: _370  and  _371
REMARK  152  A    between atoms: _370  and  _373
REMARK  153  A    between atoms: _373  and  _374
REMARK  154  A    between atoms: _377  and  _379
REMARK  155  A    between atoms: _379  and  _380
REMARK  156  A    between atoms: _379  and  _382
REMARK  157  A    between atoms: _382  and  _383
REMARK  158  A    between atoms: _386  and  _388
REMARK  159  A    between atoms: _388  and  _389
REMARK  160  A    between atoms: _388  and  _391
REMARK  161  A    between atoms: _391  and  _392
REMARK  162  A    between atoms: _395  and  _397
REMARK  163  A    between atoms: _397  and  _398
REMARK  164  A    between atoms: _397  and  _400
REMARK  165  A    between atoms: _403  and  _405
REMARK  166  A    between atoms: _405  and  _406
REMARK  167  A    between atoms: _405  and  _408
REMARK  168  A    between atoms: _408  and  _409
REMARK  169  A    between atoms: _412  and  _414
REMARK  170  A    between atoms: _414  and  _415
REMARK  171  A    between atoms: _414  and  _417
REMARK  172  A    between atoms: _418  and  _419
REMARK  173  A    between atoms: _419  and  _420
REMARK  174  A    between atoms: _420  and  _421
REMARK  175  A    between atoms: _425  and  _427
REMARK  176  A    between atoms: _427  and  _428
REMARK  177  A    between atoms: _427  and  _430
REMARK  178  A    between atoms: _430  and  _431
REMARK  179  A    between atoms: _431  and  _432
REMARK  180  A    between atoms: _434  and  _436
REMARK  181  A    between atoms: _436  and  _437
REMARK  182  A    between atoms: _436  and  _439
REMARK  183  A    between atoms: _439  and  _440
REMARK  184  A    between atoms: _443  and  _445
REMARK  185  A    between atoms: _445  and  _446
REMARK  186  A    between atoms: _448  and  _450
REMARK  187  A    between atoms: _450  and  _451
REMARK  188  A    between atoms: _453  and  _455
REMARK  189  A    between atoms: _455  and  _456
REMARK  190  A    between atoms: _455  and  _458
REMARK  191  A    between atoms: _458  and  _459
REMARK  192  A    between atoms: _462  and  _464
REMARK  193  A    between atoms: _464  and  _465
REMARK  194  A    between atoms: _467  and  _469
REMARK  195  A    between atoms: _469  and  _470
REMARK  196  A    between atoms: _472  and  _474
REMARK  197  A    between atoms: _474  and  _475
REMARK  198  A    between atoms: _474  and  _477
REMARK  199  A    between atoms: _477  and  _478
REMARK  200  A    between atoms: _484  and  _486
REMARK  201  A    between atoms: _486  and  _487
REMARK  202  A    between atoms: _486  and  _489
REMARK  203  A    between atoms: _489  and  _490
REMARK  204  A    between atoms: _493  and  _495
REMARK  205  A    between atoms: _495  and  _496
REMARK  206  A    between atoms: _495  and  _498
REMARK  207  A    between atoms: _501  and  _503
REMARK  208  A    between atoms: _503  and  _504
REMARK  209  A    between atoms: _503  and  _506
REMARK  210  A    between atoms: _506  and  _507
REMARK  211  A    between atoms: _507  and  _508
REMARK  212  A    between atoms: _513  and  _515
REMARK  213  A    between atoms: _515  and  _516
REMARK  214  A    between atoms: _515  and  _518
REMARK  215  A    between atoms: _518  and  _519
REMARK  216  A    between atoms: _523  and  _524
REMARK  217  A    between atoms: _529  and  _531
REMARK  218  A    between atoms: _531  and  _532
REMARK  219  A    between atoms: _531  and  _534
REMARK  220  A    between atoms: _534  and  _535
REMARK  221  A    between atoms: _539  and  _540
REMARK  222  A    between atoms: _545  and  _547
REMARK  223  A    between atoms: _547  and  _548
REMARK  224  A    between atoms: _547  and  _550
REMARK  225  A    between atoms: _553  and  _555
REMARK  226  A    between atoms: _555  and  _556
REMARK  227  A    between atoms: _555  and  _558
REMARK  228  A    between atoms: _558  and  _559
REMARK  229  A    between atoms: _564  and  _566
REMARK  230  A    between atoms: _566  and  _567
REMARK  231  A    between atoms: _566  and  _569
REMARK  232  A    between atoms: _569  and  _570
REMARK  233  A    between atoms: _573  and  _575
REMARK  234  A    between atoms: _575  and  _576
REMARK  235  A    between atoms: _575  and  _578
REMARK  236  A    between atoms: _578  and  _579
REMARK  237  A    between atoms: _582  and  _584
REMARK  238  A    between atoms: _584  and  _585
REMARK  239  A    between atoms: _587  and  _589
REMARK  240  A    between atoms: _589  and  _590
REMARK  241  A    between atoms: _589  and  _592
REMARK  242  A    between atoms: _592  and  _593
REMARK  243  A    between atoms: _593  and  _594
REMARK  244  A    between atoms: _594  and  _595
REMARK  245  A    between atoms: _604  and  _606
REMARK  246  A    between atoms: _606  and  _607
REMARK  247  A    between atoms: _606  and  _609
REMARK  248  A    between atoms: _609  and  _610
REMARK                            x       y       z     vdW  Elec       q    Type
REMARK                         _______ _______ _______ _____ _____    ______ ____
ROOT
ATOM      1  NE  ARG A   1      -4.921  24.324  23.357  0.00  0.00    -0.265 N 
ATOM      2  HE  ARG A   1      -5.813  24.574  23.830  0.00  0.00    +0.259 HD
ATOM      3  CZ  ARG A   1      -4.655  23.029  23.133  0.00  0.00    +0.342 C 
ATOM      4  NH2 ARG A   1      -5.582  22.139  23.479  0.00  0.00    -0.292 N 
ATOM      5 HH21 ARG A   1      -6.475  22.458  23.907  0.00  0.00    +0.255 HD
ATOM      6 HH22 ARG A   1      -5.414  21.125  23.322  0.00  0.00    +0.255 HD
ATOM      7  NH1 ARG A   1      -3.508  22.615  22.579  0.00  0.00    -0.292 N 
ATOM      8 HH11 ARG A   1      -3.342  21.600  22.423  0.00  0.00    +0.255 HD
ATOM      9 HH12 ARG A   1      -2.783  23.308  22.305  0.00  0.00    +0.255 HD
ENDROOT
BRANCH   1  10
ATOM     10  CD  ARG A   1      -4.005  25.407  22.962  0.00  0.00    +0.174 C 
BRANCH  10  11
ATOM     11  CG  ARG A   1      -4.599  26.788  23.275  0.00  0.00    +0.045 C 
BRANCH  11  12
ATOM     12  CB  ARG A   1      -6.055  26.790  22.835  0.00  0.00    +0.029 C 
BRANCH  12  13
ATOM     13  CA  ARG A   1      -6.830  28.104  22.752  0.00  0.00    +0.133 C 
BRANCH  13  14
ATOM     14  N   ARG A   1      -6.392  28.825  21.565  0.00  0.00    -0.239 NA
ATOM     15  H   ARG A   1      -5.442  28.726  21.153  0.00  0.00    +0.142 HD
ENDBRANCH  13  14
BRANCH  13  16
ATOM     16  C   ARG A   1      -6.730  28.980  23.978  0.00  0.00    +0.224 C 
ATOM     17  O   ARG A   1      -5.775  29.728  24.105  0.00  0.00    -0.287 OA
ENDBRANCH  13  16
ENDBRANCH  12  13
ENDBRANCH  11  12
ENDBRANCH  10  11
ENDBRANCH   1  10
TORSDOF 6
REMARK  Name = ../refined-set-2016/1qbt/1qbt_pocket.pdb
REMARK  248 active torsions:
REMARK  status: ('A' for Active; 'I' for Inactive)
REMARK    1  A    between atoms: _1  and  _3
REMARK    2  A    between atoms: _3  and  _4
REMARK    3  A    between atoms: _3  and  _6
REMARK    4  A    between atoms: _6  and  _7
REMARK    5  A    between atoms: _7  and  _8
REMARK    6  A    between atoms: _8  and  _9
REMARK    7  A    between atoms: _18  and  _20
REMARK    8  A    between atoms: _20  and  _21
REMARK    9  A    between atoms: _20  and  _23
REMARK   10  A    between atoms: _23  and  _24
REMARK   11  A    between atoms: _27  and  _29
REMARK   12  A    between atoms: _29  and  _30
REMARK   13  A    between atoms: _29  and  _32
REMARK   14  A    between atoms: _32  and  _33
REMARK   15  A    between atoms: _36  and  _38
REMARK   16  A    between atoms: _38  and  _39
REMARK   17  A    between atoms: _38  and  _41
REMARK   18  A    between atoms: _41  and  _42
REMARK   19  A    between atoms: _45  and  _47
REMARK   20  A    between atoms: _47  and  _48
REMARK   21  A    between atoms: _47  and  _50
REMARK   22  A    between atoms: _50  and  _51
REMARK   23  A    between atoms: _54  and  _56
REMARK   24  A    between atoms: _56  and  _57
REMARK   25  A    between atoms: _59  and  _61
REMARK   26  A    between atoms: _61  and  _62
REMARK   27  A    between atoms: _65  and  _67
REMARK   28  A    between atoms: _67  and  _68
REMARK   29  A    between atoms: _67  and  _70
REMARK   30  A    between atoms: _70  and  _71
REMARK   31  A    between atoms: _74  and  _76
REMARK   32  A    between atoms: _76  and  _77
REMARK   33  A    between atoms: _76  and  _79
REMARK   34  A    between atoms: _79  and  _80
REMARK   35  A    between atoms: _83  and  _85
REMARK   36  A    between atoms: _85  and  _86
REMARK   37  A    between atoms: _85  and  _88
REMARK   38  A    between atoms: _88  and  _89
REMARK   39  A    between atoms: _92  and  _94
REMARK   40  A    between atoms: _94  and  _95
REMARK   41  A    between atoms: _94  and  _97
REMARK   42  A    between atoms: _100  and  _102
REMARK   43  A    between atoms: _102  and  _103
REMARK   44  A    between atoms: _102  and  _105
REMARK   45  A    between atoms: _105  and  _106
REMARK   46  A    between atoms: _109  and  _111
REMARK   47  A    between atoms: _111  and  _112
REMARK   48  A    between atoms: _111  and  _114
REMARK   49  A    between atoms: _114  and  _115
REMARK   50  A    between atoms: _115  and  _116
REMARK   51  A    between atoms: _116  and  _117
REMARK   52  A    between atoms: _117  and  _118
REMARK   53  A    between atoms: _122  and  _124
REMARK   54  A    between atoms: _124  and  _125
REMARK   55  A    between atoms: _124  and  _127
REMARK   56  A    between atoms: _127  and  _128
REMARK   57  A    between atoms: _128  and  _129
REMARK   58  A    between atoms: _131  and  _133
REMARK   59  A    between atoms: _133  and  _134
REMARK   60  A    between atoms: _133  and  _136
REMARK   61  A    between atoms: _136  and  _137
REMARK   62  A    between atoms: _140  and  _142
REMARK   63  A    between atoms: _142  and  _143
REMARK   64  A    between atoms: _145  and  _147
REMARK   65  A    between atoms: _147  and  _148
REMARK   66  A    between atoms: _150  and  _152
REMARK   67  A    between atoms: _152  and  _153
REMARK   68  A    between atoms: _152  and  _155
REMARK   69  A    between atoms: _155  and  _156
REMARK   70  A    between atoms: _159  and  _161
REMARK   71  A    between atoms: _161  and  _162
REMARK   72  A    between atoms: _164  and  _166
REMARK   73  A    between atoms: _166  and  _167
REMARK   74  A    between atoms: _169  and  _171
REMARK   75  A    between atoms: _171  and  _172
REMARK   76  A    between atoms: _171  and  _174
REMARK   77  A    between atoms: _174  and  _175
REMARK   78  A    between atoms: _181  and  _183
REMARK   79  A    between atoms: _183  and  _184
REMARK   80  A    between atoms: _183  and  _186
REMARK   81  A    between atoms: _186  and  _187
REMARK   82  A    between atoms: _190  and  _192
REMARK   83  A    between atoms: _192  and  _193
REMARK   84  A    between atoms: _192  and  _195
REMARK   85  A    between atoms: _195  and  _196
REMARK   86  A    between atoms: _196  and  _197
REMARK   87  A    between atoms: _202  and  _204
REMARK   88  A    between atoms: _204  and  _205
REMARK   89  A    between atoms: _204  and  _207
REMARK   90  A    between atoms: _207  and  _208
REMARK   91  A    between atoms: _212  and  _213
REMARK   92  A    between atoms: _218  and  _220
REMARK   93  A    between atoms: _220  and  _221
REMARK   94  A    between atoms: _220  and  _223
REMARK   95  A    between atoms: _223  and  _224
REMARK   96  A    between atoms: _228  and  _229
REMARK   97  A    between atoms: _234  and  _236
REMARK   98  A    between atoms: _236  and  _237
REMARK   99  A    between atoms: _236  and  _239
REMARK  100  A    between atoms: _242  and  _244
REMARK  101  A    between atoms: _244  and  _245
REMARK  102  A    between atoms: _244  and  _247
REMARK  103  A    between atoms: _247  and  _248
REMARK  104  A    between atoms: _253  and  _255
REMARK  105  A    between atoms: _255  and  _256
REMARK  106  A    between atoms: _255  and  _258
REMARK  107  A    between atoms: _258  and  _259
REMARK  108  A    between atoms: _262  and  _264
REMARK  109  A    between atoms: _264  and  _265
REMARK  110  A    between atoms: _264  and  _267
REMARK  111  A    between atoms: _267  and  _268
REMARK  112  A    between atoms: _271  and  _273
REMARK  113  A    between atoms: _273  and  _274
REMARK  114  A    between atoms: _276  and  _278
REMARK  115  A    between atoms: _278  and  _279
REMARK  116  A    between atoms: _278  and  _281
REMARK  117  A    between atoms: _281  and  _282
REMARK  118  A    between atoms: _282  and  _283
REMARK  119  A    between atoms: _283  and  _284
REMARK  120  A    between atoms: _293  and  _295
REMARK  121  A    between atoms: _295  and  _296
REMARK  122  A    between atoms: _295  and  _298
REMARK  123  A    between atoms: _298  and  _299
REMARK  124  A    between atoms: _304  and  _306
REMARK  125  A    between atoms: _306  and  _307
REMARK  126  A    between atoms: _306  and  _309
REMARK  127  A    between atoms: _309  and  _310
REMARK  128  A    between atoms: _310  and  _311
REMARK  129  A    between atoms: _311  and  _312
REMARK  130  A    between atoms: _321  and  _323
REMARK  131  A    between atoms: _323  and  _324
REMARK  132  A    between atoms: _323  and  _326
REMARK  133  A    between atoms: _326  and  _327
REMARK  134  A    between atoms: _330  and  _332
REMARK  135  A    between atoms: _332  and  _333
REMARK  136  A    between atoms: _332  and  _335
REMARK  137  A    between atoms: _335  and  _336
REMARK  138  A    between atoms: _339  and  _341
REMARK  139  A    between atoms: _341  and  _342
REMARK  140  A    between atoms: _341  and  _344
REMARK  141  A    between atoms: _344  and  _345
REMARK  142  A    between atoms: _348  and  _350
REMARK  143  A    between atoms: _350  and  _351
REMARK  144  A    between atoms: _350  and  _353
REMARK  145  A    between atoms: _353  and  _354
REMARK  146  A    between atoms: _357  and  _359
REMARK  147  A    between atoms: _359  and  _360
REMARK  148  A    between atoms: _362  and  _364
REMARK  149  A    between atoms: _364  and  _365
REMARK  150  A    between atoms: _368  and  _370
REMARK  151  A    between atoms: _370  and  _371
REMARK  152  A    between atoms: _370  and  _373
REMARK  153  A    between atoms: _373  and  _374
REMARK  154  A    between atoms: _377  and  _379
REMARK  155  A    between atoms: _379  and  _380
REMARK  156  A    between atoms: _379  and  _382
REMARK  157  A    between atoms: _382  and  _383
REMARK  158  A    between atoms: _386  and  _388
REMARK  159  A    between atoms: _388  and  _389
REMARK  160  A    between atoms: _388  and  _391
REMARK  161  A    between atoms: _391  and  _392
REMARK  162  A    between atoms: _395  and  _397
REMARK  163  A    between atoms: _397  and  _398
REMARK  164  A    between atoms: _397  and  _400
REMARK  165  A    between atoms: _403  and  _405
REMARK  166  A    between atoms: _405  and  _406
REMARK  167  A    between atoms: _405  and  _408
REMARK  168  A    between atoms: _408  and  _409
REMARK  169  A    between atoms: _412  and  _414
REMARK  170  A    between atoms: _414  and  _415
REMARK  171  A    between atoms: _414  and  _417
REMARK  172  A    between atoms: _418  and  _419
REMARK  173  A    between atoms: _419  and  _420
REMARK  174  A    between atoms: _420  and  _421
REMARK  175  A    between atoms: _425  and  _427
REMARK  176  A    between atoms: _427  and  _428
REMARK  177  A    between atoms: _427  and  _430
REMARK  178  A    between atoms: _430  and  _431
REMARK  179  A    between atoms: _431  and  _432
REMARK  180  A    between atoms: _434  and  _436
REMARK  181  A    between atoms: _436  and  _437
REMARK  182  A    between atoms: _436  and  _439
REMARK  183  A    between atoms: _439  and  _440
REMARK  184  A    between atoms: _443  and  _445
REMARK  185  A    between atoms: _445  and  _446
REMARK  186  A    between atoms: _448  and  _450
REMARK  187  A    between atoms: _450  and  _451
REMARK  188  A    between atoms: _453  and  _455
REMARK  189  A    between atoms: _455  and  _456
REMARK  190  A    between atoms: _455  and  _458
REMARK  191  A    between atoms: _458  and  _459
REMARK  192  A    between atoms: _462  and  _464
REMARK  193  A    between atoms: _464  and  _465
REMARK  194  A    between atoms: _467  and  _469
REMARK  195  A    between atoms: _469  and  _470
REMARK  196  A    between atoms: _472  and  _474
REMARK  197  A    between atoms: _474  and  _475
REMARK  198  A    between atoms: _474  and  _477
REMARK  199  A    between atoms: _477  and  _478
REMARK  200  A    between atoms: _484  and  _486
REMARK  201  A    between atoms: _486  and  _487
REMARK  202  A    between atoms: _486  and  _489
REMARK  203  A    between atoms: _489  and  _490
REMARK  204  A    between atoms: _493  and  _495
REMARK  205  A    between atoms: _495  and  _496
REMARK  206  A    between atoms: _495  and  _498
REMARK  207  A    between atoms: _501  and  _503
REMARK  208  A    between atoms: _503  and  _504
REMARK  209  A    between atoms: _503  and  _506
REMARK  210  A    between atoms: _506  and  _507
REMARK  211  A    between atoms: _507  and  _508
REMARK  212  A    between atoms: _513  and  _515
REMARK  213  A    between atoms: _515  and  _516
REMARK  214  A    between atoms: _515  and  _518
REMARK  215  A    between atoms: _518  and  _519
REMARK  216  A    between atoms: _523  and  _524
REMARK  217  A    between atoms: _529  and  _531
REMARK  218  A    between atoms: _531  and  _532
REMARK  219  A    between atoms: _531  and  _534
REMARK  220  A    between atoms: _534  and  _535
REMARK  221  A    between atoms: _539  and  _540
REMARK  222  A    between atoms: _545  and  _547
REMARK  223  A    between atoms: _547  and  _548
REMARK  224  A    between atoms: _547  and  _550
REMARK  225  A    between atoms: _553  and  _555
REMARK  226  A    between atoms: _555  and  _556
REMARK  227  A    between atoms: _555  and  _558
REMARK  228  A    between atoms: _558  and  _559
REMARK  229  A    between atoms: _564  and  _566
REMARK  230  A    between atoms: _566  and  _567
REMARK  231  A    between atoms: _566  and  _569
REMARK  232  A    between atoms: _569  and  _570
REMARK  233  A    between atoms: _573  and  _575
REMARK  234  A    between atoms: _575  and  _576
REMARK  235  A    between atoms: _575  and  _578
REMARK  236  A    between atoms: _578  and  _579
REMARK  237  A    between atoms: _582  and  _584
REMARK  238  A    between atoms: _584  and  _585
REMARK  239  A    between atoms: _587  and  _589
REMARK  240  A    between atoms: _589  and  _590
REMARK  241  A    between atoms: _589  and  _592
REMARK  242  A    between atoms: _592  and  _593
REMARK  243  A    between atoms: _593  and  _594
REMARK  244  A    between atoms: _594  and  _595
REMARK  245  A    between atoms: _604  and  _606
REMARK  246  A    between atoms: _606  and  _607
REMARK  247  A    between atoms: _606  and  _609
REMARK  248  A    between atoms: _609  and  _610
REMARK                            x       y       z     vdW  Elec       q    Type
REMARK                         _______ _______ _______ _____ _____    ______ ____
ROOT
ATOM      1  C   ALA A   6     -13.258  19.327  34.013  0.00  0.00    +0.241 C 
ATOM      2  N   ASP A   7     -13.497  18.251  34.749  0.00  0.00    -0.297 N 
ATOM      3  H   ASP A   7     -13.259  17.299  34.403  0.00  0.00    +0.150 HD
ATOM      4  O   ALA A   6     -13.548  20.450  34.385  0.00  0.00    -0.273 OA
ENDROOT
BRANCH   1   5
ATOM      5  CA  ALA A   6     -12.593  19.079  32.686  0.00  0.00    +0.149 C 
ATOM      6  CB  ALA A   6     -11.171  19.634  32.737  0.00  0.00    +0.031 C 
BRANCH   5   8
ATOM      7  C   GLY A   5     -14.173  19.086  30.875  0.00  0.00    +0.243 C 
ATOM      8  N   ALA A   6     -13.358  19.778  31.667  0.00  0.00    -0.297 N 
ATOM      9  H   ALA A   6     -13.269  20.808  31.558  0.00  0.00    +0.150 HD
ATOM     10  O   GLY A   5     -14.360  17.888  30.995  0.00  0.00    -0.273 OA
BRANCH   7  11
ATOM     11  CA  GLY A   5     -14.790  19.875  29.752  0.00  0.00    +0.176 C 
BRANCH  11  14
ATOM     12  C   THR A   4     -15.317  22.077  30.490  0.00  0.00    +0.243 C 
ATOM     13  O   THR A   4     -16.283  21.640  31.098  0.00  0.00    -0.273 OA
ATOM     14  N   GLY A   5     -14.466  21.291  29.827  0.00  0.00    -0.295 N 
ATOM     15  H   GLY A   5     -13.608  21.675  29.383  0.00  0.00    +0.150 HD
BRANCH  12  16
ATOM     16  CA  THR A   4     -14.998  23.562  30.373  0.00  0.00    +0.176 C 
BRANCH  16  19
ATOM     17  C   ASP A   3     -12.608  23.507  30.710  0.00  0.00    +0.241 C 
ATOM     18  O   ASP A   3     -12.767  22.817  31.701  0.00  0.00    -0.273 OA
ATOM     19  N   THR A   4     -13.634  23.879  29.954  0.00  0.00    -0.295 N 
ATOM     20  H   THR A   4     -13.468  24.394  29.066  0.00  0.00    +0.150 HD
BRANCH  17  21
ATOM     21  CA  ASP A   3     -11.230  23.902  30.200  0.00  0.00    +0.160 C 
BRANCH  21  23
ATOM     22  C   LEU A   2     -10.288  26.088  30.073  0.00  0.00    +0.241 C 
ATOM     23  N   ASP A   3     -10.656  25.075  30.837  0.00  0.00    -0.297 N 
ATOM     24  H   ASP A   3     -10.538  25.116  31.869  0.00  0.00    +0.150 HD
ATOM     25  O   LEU A   2     -10.625  26.186  28.906  0.00  0.00    -0.273 OA
BRANCH  22  26
ATOM     26  CA  LEU A   2      -9.393  27.130  30.707  0.00  0.00    +0.149 C 
BRANCH  26  29
ATOM     27  C   LEU A   1      -7.184  26.270  30.531  0.00  0.00    +0.238 C 
ATOM     28  O   LEU A   1      -7.340  25.600  31.542  0.00  0.00    -0.274 OA
ATOM     29  N   LEU A   2      -8.084  27.121  30.065  0.00  0.00    -0.297 N 
ATOM     30  H   LEU A   2      -7.866  27.758  29.272  0.00  0.00    +0.150 HD
BRANCH  27  31
ATOM     31  CA  LEU A   1      -5.955  26.116  29.698  0.00  0.00    +0.145 C 
BRANCH  31  32
ATOM     32  N   LEU A   1      -4.790  26.133  30.574  0.00  0.00    -0.238 NA
ATOM     33  H   LEU A   1      -4.421  25.230  30.934  0.00  0.00    +0.142 HD
ENDBRANCH  31  32
BRANCH  31  34
ATOM     34  CB  LEU A   1      -6.141  24.735  29.083  0.00  0.00    +0.026 C 
BRANCH  34  35
ATOM     35  CG  LEU A   1      -5.743  24.470  27.642  0.00  0.00    +0.002 C 
ATOM     36  CD2 LEU A   1      -6.199  23.052  27.299  0.00  0.00    +0.000 C 
ATOM     37  CD1 LEU A   1      -6.362  25.474  26.688  0.00  0.00    +0.000 C 
ENDBRANCH  34  35
ENDBRANCH  31  34
ENDBRANCH  27  31
ENDBRANCH  26  29
BRANCH  26  38
ATOM     38  CB  LEU A   2     -10.022  28.497  30.508  0.00  0.00    +0.029 C 
BRANCH  38  39
ATOM     39  CG  LEU A   2      -9.248  29.645  31.128  0.00  0.00    +0.002 C 
ATOM     40  CD2 LEU A   2      -9.135  29.525  32.644  0.00  0.00    +0.000 C 
ATOM     41  CD1 LEU A   2      -9.969  30.929  30.772  0.00  0.00    +0.000 C 
ENDBRANCH  38  39
ENDBRANCH  26  38
ENDBRANCH  22  26
ENDBRANCH  21  23
BRANCH  21  42
ATOM     42  CB  ASP A   3     -10.198  22.793  30.435  0.00  0.00    +0.143 C 
BRANCH  42  43
ATOM     43  CG  ASP A   3     -10.355  21.606  29.530  0.00  0.00    +0.367 C 
ATOM     44  OD2 ASP A   3      -9.466  20.785  29.537  0.00  0.00    -0.246 OA
ATOM     45  OD1 ASP A   3     -11.345  21.494  28.823  0.00  0.00    -0.246 OA
ENDBRANCH  42  43
ENDBRANCH  21  42
ENDBRANCH  17  21
ENDBRANCH  16  19
BRANCH  16  46
ATOM     46  CB  THR A   4     -15.968  24.267  29.400  0.00  0.00    +0.137 C 
ATOM     47  CG2 THR A   4     -15.860  25.787  29.497  0.00  0.00    +0.034 C 
BRANCH  46  48
ATOM     48  OG1 THR A   4     -15.696  23.892  28.041  0.00  0.00    -0.382 OA
ATOM     49  HG1 THR A   4     -15.802  22.913  27.942  0.00  0.00    +0.210 HD
ENDBRANCH  46  48
ENDBRANCH  16  46
ENDBRANCH  12  16
ENDBRANCH  11  14
ENDBRANCH   7  11
ENDBRANCH   5   8
ENDBRANCH   1   5
BRANCH   2  50
ATOM     50  CA  ASP A   7     -14.107  18.447  36.064  0.00  0.00    +0.160 C 
BRANCH  50  51
ATOM     51  C   ASP A   7     -13.160  19.084  37.048  0.00  0.00    +0.241 C 
ATOM     52  O   ASP A   7     -13.531  19.953  37.814  0.00  0.00    -0.273 OA
ATOM     53  N   ASP A   8     -11.919  18.611  37.004  0.00  0.00    -0.297 N 
ATOM     54  H   ASP A   8     -11.667  17.945  36.246  0.00  0.00    +0.150 HD
BRANCH  53  55
ATOM     55  CA  ASP A   8     -10.889  18.987  37.979  0.00  0.00    +0.160 C 
BRANCH  55  56
ATOM     56  C   ASP A   8      -9.757  19.752  37.339  0.00  0.00    +0.241 C 
ATOM     57  N   THR A   9      -8.999  20.427  38.171  0.00  0.00    -0.295 N 
ATOM     58  H   THR A   9      -9.260  20.484  39.176  0.00  0.00    +0.150 HD
ATOM     59  O   ASP A   8      -9.567  19.713  36.139  0.00  0.00    -0.273 OA
BRANCH  57  60
ATOM     60  CA  THR A   9      -7.802  21.094  37.701  0.00  0.00    +0.176 C 
BRANCH  60  61
ATOM     61  C   THR A   9      -6.630  20.167  37.796  0.00  0.00    +0.243 C 
ATOM     62  O   THR A   9      -6.453  19.488  38.788  0.00  0.00    -0.273 OA
ATOM     63  N   VAL A  10      -5.845  20.137  36.750  0.00  0.00    -0.297 N 
ATOM     64  H   VAL A  10      -6.028  20.771  35.946  0.00  0.00    +0.150 HD
BRANCH  63  65
ATOM     65  CA  VAL A  10      -4.712  19.215  36.709  0.00  0.00    +0.149 C 
BRANCH  65  66
ATOM     66  C   VAL A  10      -3.493  19.955  36.215  0.00  0.00    +0.241 C 
ATOM     67  N   LEU A  11      -2.472  19.989  37.039  0.00  0.00    -0.298 N 
ATOM     68  H   LEU A  11      -2.521  19.467  37.937  0.00  0.00    +0.150 HD
ATOM     69  O   VAL A  10      -3.496  20.510  35.128  0.00  0.00    -0.273 OA
BRANCH  67  70
ATOM     70  CA  LEU A  11      -1.274  20.745  36.714  0.00  0.00    +0.137 C 
BRANCH  70  71
ATOM     71  C   LEU A  11      -0.178  19.767  36.485  0.00  0.00    +0.227 C 
ATOM     72  O   LEU A  11      -0.133  18.691  37.069  0.00  0.00    -0.286 OA
ENDBRANCH  70  71
BRANCH  70  73
ATOM     73  CB  LEU A  11      -0.903  21.578  37.928  0.00  0.00    +0.028 C 
BRANCH  73  74
ATOM     74  CG  LEU A  11      -2.014  22.547  38.324  0.00  0.00    +0.002 C 
ATOM     75  CD2 LEU A  11      -1.754  23.101  39.704  0.00  0.00    +0.000 C 
ATOM     76  CD1 LEU A  11      -2.170  23.695  37.329  0.00  0.00    +0.000 C 
ENDBRANCH  73  74
ENDBRANCH  70  73
ENDBRANCH  67  70
ENDBRANCH  65  66
BRANCH  65  77
ATOM     77  CB  VAL A  10      -4.977  18.068  35.726  0.00  0.00    +0.027 C 
ATOM     78  CG2 VAL A  10      -6.343  17.424  35.920  0.00  0.00    +0.002 C 
ATOM     79  CG1 VAL A  10      -3.882  17.021  35.877  0.00  0.00    +0.002 C 
ENDBRANCH  65  77
ENDBRANCH  63  65
ENDBRANCH  60  61
BRANCH  60  80
ATOM     80  CB  THR A   9      -7.639  22.303  38.623  0.00  0.00    +0.137 C 
ATOM     81  CG2 THR A   9      -6.363  23.125  38.399  0.00  0.00    +0.034 C 
BRANCH  80  82
ATOM     82  OG1 THR A   9      -8.793  23.130  38.448  0.00  0.00    -0.382 OA
ATOM     83  HG1 THR A   9      -8.719  23.925  39.033  0.00  0.00    +0.210 HD
ENDBRANCH  80  82
ENDBRANCH  60  80
ENDBRANCH  57  60
ENDBRANCH  55  56
BRANCH  55  84
ATOM     84  CB  ASP A   8     -10.241  17.731  38.540  0.00  0.00    +0.143 C 
BRANCH  84  85
ATOM     85  CG  ASP A   8     -11.151  17.020  39.493  0.00  0.00    +0.367 C 
ATOM     86  OD2 ASP A   8     -11.304  17.495  40.619  0.00  0.00    -0.246 OA
ATOM     87  OD1 ASP A   8     -11.674  15.975  39.116  0.00  0.00    -0.246 OA
ENDBRANCH  84  85
ENDBRANCH  55  84
ENDBRANCH  53  55
ENDBRANCH  50  51
BRANCH  50  88
ATOM     88  CB  ASP A   7     -14.580  17.126  36.679  0.00  0.00    +0.143 C 
BRANCH  88  89
ATOM     89  CG  ASP A   7     -15.538  16.352  35.788  0.00  0.00    +0.367 C 
ATOM     90  OD2 ASP A   7     -15.442  15.129  35.797  0.00  0.00    -0.246 OA
ATOM     91  OD1 ASP A   7     -16.375  16.945  35.101  0.00  0.00    -0.246 OA
ENDBRANCH  88  89
ENDBRANCH  50  88
ENDBRANCH   2  50
TORSDOF 39
REMARK  Name = ../refined-set-2016/1qbt/1qbt_pocket.pdb
REMARK  248 active torsions:
REMARK  status: ('A' for Active; 'I' for Inactive)
REMARK    1  A    between atoms: _1  and  _3
REMARK    2  A    between atoms: _3  and  _4
REMARK    3  A    between atoms: _3  and  _6
REMARK    4  A    between atoms: _6  and  _7
REMARK    5  A    between atoms: _7  and  _8
REMARK    6  A    between atoms: _8  and  _9
REMARK    7  A    between atoms: _18  and  _20
REMARK    8  A    between atoms: _20  and  _21
REMARK    9  A    between atoms: _20  and  _23
REMARK   10  A    between atoms: _23  and  _24
REMARK   11  A    between atoms: _27  and  _29
REMARK   12  A    between atoms: _29  and  _30
REMARK   13  A    between atoms: _29  and  _32
REMARK   14  A    between atoms: _32  and  _33
REMARK   15  A    between atoms: _36  and  _38
REMARK   16  A    between atoms: _38  and  _39
REMARK   17  A    between atoms: _38  and  _41
REMARK   18  A    between atoms: _41  and  _42
REMARK   19  A    between atoms: _45  and  _47
REMARK   20  A    between atoms: _47  and  _48
REMARK   21  A    between atoms: _47  and  _50
REMARK   22  A    between atoms: _50  and  _51
REMARK   23  A    between atoms: _54  and  _56
REMARK   24  A    between atoms: _56  and  _57
REMARK   25  A    between atoms: _59  and  _61
REMARK   26  A    between atoms: _61  and  _62
REMARK   27  A    between atoms: _65  and  _67
REMARK   28  A    between atoms: _67  and  _68
REMARK   29  A    between atoms: _67  and  _70
REMARK   30  A    between atoms: _70  and  _71
REMARK   31  A    between atoms: _74  and  _76
REMARK   32  A    between atoms: _76  and  _77
REMARK   33  A    between atoms: _76  and  _79
REMARK   34  A    between atoms: _79  and  _80
REMARK   35  A    between atoms: _83  and  _85
REMARK   36  A    between atoms: _85  and  _86
REMARK   37  A    between atoms: _85  and  _88
REMARK   38  A    between atoms: _88  and  _89
REMARK   39  A    between atoms: _92  and  _94
REMARK   40  A    between atoms: _94  and  _95
REMARK   41  A    between atoms: _94  and  _97
REMARK   42  A    between atoms: _100  and  _102
REMARK   43  A    between atoms: _102  and  _103
REMARK   44  A    between atoms: _102  and  _105
REMARK   45  A    between atoms: _105  and  _106
REMARK   46  A    between atoms: _109  and  _111
REMARK   47  A    between atoms: _111  and  _112
REMARK   48  A    between atoms: _111  and  _114
REMARK   49  A    between atoms: _114  and  _115
REMARK   50  A    between atoms: _115  and  _116
REMARK   51  A    between atoms: _116  and  _117
REMARK   52  A    between atoms: _117  and  _118
REMARK   53  A    between atoms: _122  and  _124
REMARK   54  A    between atoms: _124  and  _125
REMARK   55  A    between atoms: _124  and  _127
REMARK   56  A    between atoms: _127  and  _128
REMARK   57  A    between atoms: _128  and  _129
REMARK   58  A    between atoms: _131  and  _133
REMARK   59  A    between atoms: _133  and  _134
REMARK   60  A    between atoms: _133  and  _136
REMARK   61  A    between atoms: _136  and  _137
REMARK   62  A    between atoms: _140  and  _142
REMARK   63  A    between atoms: _142  and  _143
REMARK   64  A    between atoms: _145  and  _147
REMARK   65  A    between atoms: _147  and  _148
REMARK   66  A    between atoms: _150  and  _152
REMARK   67  A    between atoms: _152  and  _153
REMARK   68  A    between atoms: _152  and  _155
REMARK   69  A    between atoms: _155  and  _156
REMARK   70  A    between atoms: _159  and  _161
REMARK   71  A    between atoms: _161  and  _162
REMARK   72  A    between atoms: _164  and  _166
REMARK   73  A    between atoms: _166  and  _167
REMARK   74  A    between atoms: _169  and  _171
REMARK   75  A    between atoms: _171  and  _172
REMARK   76  A    between atoms: _171  and  _174
REMARK   77  A    between atoms: _174  and  _175
REMARK   78  A    between atoms: _181  and  _183
REMARK   79  A    between atoms: _183  and  _184
REMARK   80  A    between atoms: _183  and  _186
REMARK   81  A    between atoms: _186  and  _187
REMARK   82  A    between atoms: _190  and  _192
REMARK   83  A    between atoms: _192  and  _193
REMARK   84  A    between atoms: _192  and  _195
REMARK   85  A    between atoms: _195  and  _196
REMARK   86  A    between atoms: _196  and  _197
REMARK   87  A    between atoms: _202  and  _204
REMARK   88  A    between atoms: _204  and  _205
REMARK   89  A    between atoms: _204  and  _207
REMARK   90  A    between atoms: _207  and  _208
REMARK   91  A    between atoms: _212  and  _213
REMARK   92  A    between atoms: _218  and  _220
REMARK   93  A    between atoms: _220  and  _221
REMARK   94  A    between atoms: _220  and  _223
REMARK   95  A    between atoms: _223  and  _224
REMARK   96  A    between atoms: _228  and  _229
REMARK   97  A    between atoms: _234  and  _236
REMARK   98  A    between atoms: _236  and  _237
REMARK   99  A    between atoms: _236  and  _239
REMARK  100  A    between atoms: _242  and  _244
REMARK  101  A    between atoms: _244  and  _245
REMARK  102  A    between atoms: _244  and  _247
REMARK  103  A    between atoms: _247  and  _248
REMARK  104  A    between atoms: _253  and  _255
REMARK  105  A    between atoms: _255  and  _256
REMARK  106  A    between atoms: _255  and  _258
REMARK  107  A    between atoms: _258  and  _259
REMARK  108  A    between atoms: _262  and  _264
REMARK  109  A    between atoms: _264  and  _265
REMARK  110  A    between atoms: _264  and  _267
REMARK  111  A    between atoms: _267  and  _268
REMARK  112  A    between atoms: _271  and  _273
REMARK  113  A    between atoms: _273  and  _274
REMARK  114  A    between atoms: _276  and  _278
REMARK  115  A    between atoms: _278  and  _279
REMARK  116  A    between atoms: _278  and  _281
REMARK  117  A    between atoms: _281  and  _282
REMARK  118  A    between atoms: _282  and  _283
REMARK  119  A    between atoms: _283  and  _284
REMARK  120  A    between atoms: _293  and  _295
REMARK  121  A    between atoms: _295  and  _296
REMARK  122  A    between atoms: _295  and  _298
REMARK  123  A    between atoms: _298  and  _299
REMARK  124  A    between atoms: _304  and  _306
REMARK  125  A    between atoms: _306  and  _307
REMARK  126  A    between atoms: _306  and  _309
REMARK  127  A    between atoms: _309  and  _310
REMARK  128  A    between atoms: _310  and  _311
REMARK  129  A    between atoms: _311  and  _312
REMARK  130  A    between atoms: _321  and  _323
REMARK  131  A    between atoms: _323  and  _324
REMARK  132  A    between atoms: _323  and  _326
REMARK  133  A    between atoms: _326  and  _327
REMARK  134  A    between atoms: _330  and  _332
REMARK  135  A    between atoms: _332  and  _333
REMARK  136  A    between atoms: _332  and  _335
REMARK  137  A    between atoms: _335  and  _336
REMARK  138  A    between atoms: _339  and  _341
REMARK  139  A    between atoms: _341  and  _342
REMARK  140  A    between atoms: _341  and  _344
REMARK  141  A    between atoms: _344  and  _345
REMARK  142  A    between atoms: _348  and  _350
REMARK  143  A    between atoms: _350  and  _351
REMARK  144  A    between atoms: _350  and  _353
REMARK  145  A    between atoms: _353  and  _354
REMARK  146  A    between atoms: _357  and  _359
REMARK  147  A    between atoms: _359  and  _360
REMARK  148  A    between atoms: _362  and  _364
REMARK  149  A    between atoms: _364  and  _365
REMARK  150  A    between atoms: _368  and  _370
REMARK  151  A    between atoms: _370  and  _371
REMARK  152  A    between atoms: _370  and  _373
REMARK  153  A    between atoms: _373  and  _374
REMARK  154  A    between atoms: _377  and  _379
REMARK  155  A    between atoms: _379  and  _380
REMARK  156  A    between atoms: _379  and  _382
REMARK  157  A    between atoms: _382  and  _383
REMARK  158  A    between atoms: _386  and  _388
REMARK  159  A    between atoms: _388  and  _389
REMARK  160  A    between atoms: _388  and  _391
REMARK  161  A    between atoms: _391  and  _392
REMARK  162  A    between atoms: _395  and  _397
REMARK  163  A    between atoms: _397  and  _398
REMARK  164  A    between atoms: _397  and  _400
REMARK  165  A    between atoms: _403  and  _405
REMARK  166  A    between atoms: _405  and  _406
REMARK  167  A    between atoms: _405  and  _408
REMARK  168  A    between atoms: _408  and  _409
REMARK  169  A    between atoms: _412  and  _414
REMARK  170  A    between atoms: _414  and  _415
REMARK  171  A    between atoms: _414  and  _417
REMARK  172  A    between atoms: _418  and  _419
REMARK  173  A    between atoms: _419  and  _420
REMARK  174  A    between atoms: _420  and  _421
REMARK  175  A    between atoms: _425  and  _427
REMARK  176  A    between atoms: _427  and  _428
REMARK  177  A    between atoms: _427  and  _430
REMARK  178  A    between atoms: _430  and  _431
REMARK  179  A    between atoms: _431  and  _432
REMARK  180  A    between atoms: _434  and  _436
REMARK  181  A    between atoms: _436  and  _437
REMARK  182  A    between atoms: _436  and  _439
REMARK  183  A    between atoms: _439  and  _440
REMARK  184  A    between atoms: _443  and  _445
REMARK  185  A    between atoms: _445  and  _446
REMARK  186  A    between atoms: _448  and  _450
REMARK  187  A    between atoms: _450  and  _451
REMARK  188  A    between atoms: _453  and  _455
REMARK  189  A    between atoms: _455  and  _456
REMARK  190  A    between atoms: _455  and  _458
REMARK  191  A    between atoms: _458  and  _459
REMARK  192  A    between atoms: _462  and  _464
REMARK  193  A    between atoms: _464  and  _465
REMARK  194  A    between atoms: _467  and  _469
REMARK  195  A    between atoms: _469  and  _470
REMARK  196  A    between atoms: _472  and  _474
REMARK  197  A    between atoms: _474  and  _475
REMARK  198  A    between atoms: _474  and  _477
REMARK  199  A    between atoms: _477  and  _478
REMARK  200  A    between atoms: _484  and  _486
REMARK  201  A    between atoms: _486  and  _487
REMARK  202  A    between atoms: _486  and  _489
REMARK  203  A    between atoms: _489  and  _490
REMARK  204  A    between atoms: _493  and  _495
REMARK  205  A    between atoms: _495  and  _496
REMARK  206  A    between atoms: _495  and  _498
REMARK  207  A    between atoms: _501  and  _503
REMARK  208  A    between atoms: _503  and  _504
REMARK  209  A    between atoms: _503  and  _506
REMARK  210  A    between atoms: _506  and  _507
REMARK  211  A    between atoms: _507  and  _508
REMARK  212  A    between atoms: _513  and  _515
REMARK  213  A    between atoms: _515  and  _516
REMARK  214  A    between atoms: _515  and  _518
REMARK  215  A    between atoms: _518  and  _519
REMARK  216  A    between atoms: _523  and  _524
REMARK  217  A    between atoms: _529  and  _531
REMARK  218  A    between atoms: _531  and  _532
REMARK  219  A    between atoms: _531  and  _534
REMARK  220  A    between atoms: _534  and  _535
REMARK  221  A    between atoms: _539  and  _540
REMARK  222  A    between atoms: _545  and  _547
REMARK  223  A    between atoms: _547  and  _548
REMARK  224  A    between atoms: _547  and  _550
REMARK  225  A    between atoms: _553  and  _555
REMARK  226  A    between atoms: _555  and  _556
REMARK  227  A    between atoms: _555  and  _558
REMARK  228  A    between atoms: _558  and  _559
REMARK  229  A    between atoms: _564  and  _566
REMARK  230  A    between atoms: _566  and  _567
REMARK  231  A    between atoms: _566  and  _569
REMARK  232  A    between atoms: _569  and  _570
REMARK  233  A    between atoms: _573  and  _575
REMARK  234  A    between atoms: _575  and  _576
REMARK  235  A    between atoms: _575  and  _578
REMARK  236  A    between atoms: _578  and  _579
REMARK  237  A    between atoms: _582  and  _584
REMARK  238  A    between atoms: _584  and  _585
REMARK  239  A    between atoms: _587  and  _589
REMARK  240  A    between atoms: _589  and  _590
REMARK  241  A    between atoms: _589  and  _592
REMARK  242  A    between atoms: _592  and  _593
REMARK  243  A    between atoms: _593  and  _594
REMARK  244  A    between atoms: _594  and  _595
REMARK  245  A    between atoms: _604  and  _606
REMARK  246  A    between atoms: _606  and  _607
REMARK  247  A    between atoms: _606  and  _609
REMARK  248  A    between atoms: _609  and  _610
REMARK                            x       y       z     vdW  Elec       q    Type
REMARK                         _______ _______ _______ _____ _____    ______ ____
ROOT
ATOM      1  C   GLY A   5      -9.339  10.513  28.834  0.00  0.00    +0.243 C 
ATOM      2  O   GLY A   5      -9.748   9.369  28.817  0.00  0.00    -0.273 OA
ATOM      3  N   ILE A   6      -8.972  11.129  27.743  0.00  0.00    -0.297 N 
ATOM      4  H   ILE A   6      -8.757  12.147  27.748  0.00  0.00    +0.150 HD
ENDROOT
BRANCH   3   5
ATOM      5  CA  ILE A   6      -8.873  10.350  26.522  0.00  0.00    +0.149 C 
BRANCH   5   6
ATOM      6  C   ILE A   6      -7.510   9.699  26.521  0.00  0.00    +0.241 C 
ATOM      7  O   ILE A   6      -6.509  10.292  26.888  0.00  0.00    -0.273 OA
ATOM      8  N   GLY A   7      -7.468   8.460  26.103  0.00  0.00    -0.295 N 
ATOM      9  H   GLY A   7      -8.293   7.992  25.676  0.00  0.00    +0.150 HD
BRANCH   8  10
ATOM     10  CA  GLY A   7      -6.197   7.779  26.272  0.00  0.00    +0.176 C 
BRANCH  10  11
ATOM     11  C   GLY A   7      -6.280   6.920  27.506  0.00  0.00    +0.243 C 
ATOM     12  N   GLY A   8      -6.529   7.548  28.648  0.00  0.00    -0.295 N 
ATOM     13  H   GLY A   8      -6.533   8.585  28.722  0.00  0.00    +0.150 HD
ATOM     14  O   GLY A   7      -6.178   5.711  27.418  0.00  0.00    -0.273 OA
BRANCH  12  15
ATOM     15  CA  GLY A   8      -6.795   6.690  29.783  0.00  0.00    +0.176 C 
BRANCH  15  16
ATOM     16  C   GLY A   8      -6.580   7.402  31.075  0.00  0.00    +0.243 C 
ATOM     17  N   PHE A   9      -6.064   6.635  32.011  0.00  0.00    -0.297 N 
ATOM     18  H   PHE A   9      -5.711   5.683  31.784  0.00  0.00    +0.150 HD
ATOM     19  O   GLY A   8      -6.895   8.567  31.242  0.00  0.00    -0.273 OA
BRANCH  17  20
ATOM     20  CA  PHE A   9      -5.999   7.147  33.367  0.00  0.00    +0.153 C 
BRANCH  20  21
ATOM     21  C   PHE A   9      -4.636   7.650  33.646  0.00  0.00    +0.241 C 
ATOM     22  N   ILE A  10      -4.575   8.677  34.454  0.00  0.00    -0.298 N 
ATOM     23  H   ILE A  10      -5.415   9.252  34.669  0.00  0.00    +0.150 HD
ATOM     24  O   PHE A   9      -3.663   7.097  33.170  0.00  0.00    -0.273 OA
BRANCH  22  25
ATOM     25  CA  ILE A  10      -3.278   8.976  35.037  0.00  0.00    +0.137 C 
BRANCH  25  26
ATOM     26  C   ILE A  10      -3.432   8.990  36.543  0.00  0.00    +0.227 C 
ATOM     27  O   ILE A  10      -4.505   9.235  37.075  0.00  0.00    -0.286 OA
ENDBRANCH  25  26
BRANCH  25  28
ATOM     28  CB  ILE A  10      -2.730  10.319  34.503  0.00  0.00    +0.026 C 
ATOM     29  CG2 ILE A  10      -2.292  10.169  33.043  0.00  0.00    +0.002 C 
BRANCH  28  30
ATOM     30  CG1 ILE A  10      -3.642  11.547  34.656  0.00  0.00    +0.002 C 
ATOM     31  CD1 ILE A  10      -2.889  12.846  34.341  0.00  0.00    +0.000 C 
ENDBRANCH  28  30
ENDBRANCH  25  28
ENDBRANCH  22  25
ENDBRANCH  20  21
BRANCH  20  32
ATOM     32  CB  PHE A   9      -6.288   6.024  34.360  0.00  0.00    +0.055 C 
BRANCH  32  33
ATOM     33  CG  PHE A   9      -7.783   5.811  34.447  0.00  0.00    -0.020 A 
ATOM     34  CD2 PHE A   9      -8.495   6.324  35.559  0.00  0.00    -0.004 A 
ATOM     35  CE2 PHE A   9      -9.900   6.181  35.634  0.00  0.00    -0.000 A 
ATOM     36  CZ  PHE A   9     -10.582   5.514  34.598  0.00  0.00    -0.000 A 
ATOM     37  CE1 PHE A   9      -9.878   4.989  33.490  0.00  0.00    -0.000 A 
ATOM     38  CD1 PHE A   9      -8.476   5.139  33.415  0.00  0.00    -0.004 A 
ENDBRANCH  32  33
ENDBRANCH  20  32
ENDBRANCH  17  20
ENDBRANCH  15  16
ENDBRANCH  12  15
ENDBRANCH  10  11
ENDBRANCH   8  10
ENDBRANCH   5   6
BRANCH   5  39
ATOM     39  CB  ILE A   6      -9.052  11.353  25.376  0.00  0.00    +0.027 C 
ATOM     40  CG2 ILE A   6      -8.332  10.993  24.069  0.00  0.00    +0.002 C 
BRANCH  39  41
ATOM     41  CG1 ILE A   6     -10.547  11.490  25.113  0.00  0.00    +0.002 C 
ATOM     42  CD1 ILE A   6     -10.891  12.401  23.936  0.00  0.00    +0.000 C 
ENDBRANCH  39  41
ENDBRANCH   5  39
ENDBRANCH   3   5
BRANCH   1  43
ATOM     43  CA  GLY A   5      -9.196  11.339  30.078  0.00  0.00    +0.176 C 
BRANCH  43  46
ATOM     44  C   GLY A   4      -9.379  10.755  32.378  0.00  0.00    +0.243 C 
ATOM     45  O   GLY A   4      -9.930  11.804  32.644  0.00  0.00    -0.273 OA
ATOM     46  N   GLY A   5      -8.923  10.470  31.192  0.00  0.00    -0.295 N 
ATOM     47  H   GLY A   5      -8.358   9.609  31.049  0.00  0.00    +0.150 HD
BRANCH  44  48
ATOM     48  CA  GLY A   4      -9.198   9.644  33.396  0.00  0.00    +0.176 C 
BRANCH  48  51
ATOM     49  C   ILE A   3      -8.145   9.926  35.527  0.00  0.00    +0.241 C 
ATOM     50  O   ILE A   3      -7.133   9.351  35.153  0.00  0.00    -0.273 OA
ATOM     51  N   GLY A   4      -9.217  10.103  34.780  0.00  0.00    -0.295 N 
ATOM     52  H   GLY A   4     -10.063  10.563  35.172  0.00  0.00    +0.150 HD
BRANCH  49  53
ATOM     53  CA  ILE A   3      -8.211  10.481  36.912  0.00  0.00    +0.149 C 
BRANCH  53  56
ATOM     54  C   MET A   2      -7.473   9.245  38.738  0.00  0.00    +0.241 C 
ATOM     55  O   MET A   2      -8.596   9.255  39.218  0.00  0.00    -0.273 OA
ATOM     56  N   ILE A   3      -7.121   9.891  37.657  0.00  0.00    -0.297 N 
ATOM     57  H   ILE A   3      -6.129   9.974  37.355  0.00  0.00    +0.150 HD
BRANCH  54  58
ATOM     58  CA  MET A   2      -6.406   8.439  39.355  0.00  0.00    +0.149 C 
BRANCH  58  61
ATOM     59  C   LYS A   1      -5.501   9.294  41.468  0.00  0.00    +0.238 C 
ATOM     60  O   LYS A   1      -4.487   9.735  40.959  0.00  0.00    -0.274 OA
ATOM     61  N   MET A   2      -6.464   8.649  40.807  0.00  0.00    -0.297 N 
ATOM     62  H   MET A   2      -7.281   8.284  41.337  0.00  0.00    +0.150 HD
BRANCH  59  63
ATOM     63  CA  LYS A   1      -5.679   9.438  42.950  0.00  0.00    +0.145 C 
BRANCH  63  64
ATOM     64  N   LYS A   1      -4.416   9.872  43.544  0.00  0.00    -0.238 NA
ATOM     65  H   LYS A   1      -3.658  10.250  42.940  0.00  0.00    +0.142 HD
ENDBRANCH  63  64
BRANCH  63  66
ATOM     66  CB  LYS A   1      -6.848  10.375  43.278  0.00  0.00    +0.026 C 
BRANCH  66  67
ATOM     67  CG  LYS A   1      -6.926  11.705  42.537  0.00  0.00    -0.000 C 
BRANCH  67  68
ATOM     68  CD  LYS A   1      -8.235  12.416  42.853  0.00  0.00    -0.024 C 
BRANCH  68  69
ATOM     69  CE  LYS A   1      -9.453  11.486  42.814  0.00  0.00    -0.086 C 
BRANCH  69  70
ATOM     70  NZ  LYS A   1     -10.655  12.285  43.089  0.00  0.00    +0.380 N 
ATOM     71  HZ1 LYS A   1     -10.571  12.723  44.028  0.00  0.00    -0.089 HD
ATOM     72  HZ2 LYS A   1     -11.492  11.668  43.066  0.00  0.00    -0.089 HD
ATOM     73  HZ3 LYS A   1     -10.750  13.027  42.366  0.00  0.00    -0.089 HD
ENDBRANCH  69  70
ENDBRANCH  68  69
ENDBRANCH  67  68
ENDBRANCH  66  67
ENDBRANCH  63  66
ENDBRANCH  59  63
ENDBRANCH  58  61
BRANCH  58  74
ATOM     74  CB  MET A   2      -6.830   7.042  38.915  0.00  0.00    +0.041 C 
BRANCH  74  75
ATOM     75  CG  MET A   2      -5.655   6.280  38.359  0.00  0.00    +0.060 C 
BRANCH  75  76
ATOM     76  SD  MET A   2      -4.619   5.938  39.775  0.00  0.00    -0.139 S 
ATOM     77  CE  MET A   2      -5.678   4.679  40.523  0.00  0.00    +0.069 C 
ENDBRANCH  75  76
ENDBRANCH  74  75
ENDBRANCH  58  74
ENDBRANCH  54  58
ENDBRANCH  53  56
BRANCH  53  78
ATOM     78  CB  ILE A   3      -8.075  12.001  36.905  0.00  0.00    +0.027 C 
ATOM     79  CG2 ILE A   3      -8.224  12.538  38.328  0.00  0.00    +0.002 C 
BRANCH  78  80
ATOM     80  CG1 ILE A   3      -6.796  12.510  36.252  0.00  0.00    +0.002 C 
ATOM     81  CD1 ILE A   3      -6.982  13.964  35.838  0.00  0.00    +0.000 C 
ENDBRANCH  78  80
ENDBRANCH  53  78
ENDBRANCH  49  53
ENDBRANCH  48  51
ENDBRANCH  44  48
ENDBRANCH  43  46
ENDBRANCH   1  43
TORSDOF 36
REMARK  Name = ../refined-set-2016/1qbt/1qbt_pocket.pdb
REMARK  248 active torsions:
REMARK  status: ('A' for Active; 'I' for Inactive)
REMARK    1  A    between atoms: _1  and  _3
REMARK    2  A    between atoms: _3  and  _4
REMARK    3  A    between atoms: _3  and  _6
REMARK    4  A    between atoms: _6  and  _7
REMARK    5  A    between atoms: _7  and  _8
REMARK    6  A    between atoms: _8  and  _9
REMARK    7  A    between atoms: _18  and  _20
REMARK    8  A    between atoms: _20  and  _21
REMARK    9  A    between atoms: _20  and  _23
REMARK   10  A    between atoms: _23  and  _24
REMARK   11  A    between atoms: _27  and  _29
REMARK   12  A    between atoms: _29  and  _30
REMARK   13  A    between atoms: _29  and  _32
REMARK   14  A    between atoms: _32  and  _33
REMARK   15  A    between atoms: _36  and  _38
REMARK   16  A    between atoms: _38  and  _39
REMARK   17  A    between atoms: _38  and  _41
REMARK   18  A    between atoms: _41  and  _42
REMARK   19  A    between atoms: _45  and  _47
REMARK   20  A    between atoms: _47  and  _48
REMARK   21  A    between atoms: _47  and  _50
REMARK   22  A    between atoms: _50  and  _51
REMARK   23  A    between atoms: _54  and  _56
REMARK   24  A    between atoms: _56  and  _57
REMARK   25  A    between atoms: _59  and  _61
REMARK   26  A    between atoms: _61  and  _62
REMARK   27  A    between atoms: _65  and  _67
REMARK   28  A    between atoms: _67  and  _68
REMARK   29  A    between atoms: _67  and  _70
REMARK   30  A    between atoms: _70  and  _71
REMARK   31  A    between atoms: _74  and  _76
REMARK   32  A    between atoms: _76  and  _77
REMARK   33  A    between atoms: _76  and  _79
REMARK   34  A    between atoms: _79  and  _80
REMARK   35  A    between atoms: _83  and  _85
REMARK   36  A    between atoms: _85  and  _86
REMARK   37  A    between atoms: _85  and  _88
REMARK   38  A    between atoms: _88  and  _89
REMARK   39  A    between atoms: _92  and  _94
REMARK   40  A    between atoms: _94  and  _95
REMARK   41  A    between atoms: _94  and  _97
REMARK   42  A    between atoms: _100  and  _102
REMARK   43  A    between atoms: _102  and  _103
REMARK   44  A    between atoms: _102  and  _105
REMARK   45  A    between atoms: _105  and  _106
REMARK   46  A    between atoms: _109  and  _111
REMARK   47  A    between atoms: _111  and  _112
REMARK   48  A    between atoms: _111  and  _114
REMARK   49  A    between atoms: _114  and  _115
REMARK   50  A    between atoms: _115  and  _116
REMARK   51  A    between atoms: _116  and  _117
REMARK   52  A    between atoms: _117  and  _118
REMARK   53  A    between atoms: _122  and  _124
REMARK   54  A    between atoms: _124  and  _125
REMARK   55  A    between atoms: _124  and  _127
REMARK   56  A    between atoms: _127  and  _128
REMARK   57  A    between atoms: _128  and  _129
REMARK   58  A    between atoms: _131  and  _133
REMARK   59  A    between atoms: _133  and  _134
REMARK   60  A    between atoms: _133  and  _136
REMARK   61  A    between atoms: _136  and  _137
REMARK   62  A    between atoms: _140  and  _142
REMARK   63  A    between atoms: _142  and  _143
REMARK   64  A    between atoms: _145  and  _147
REMARK   65  A    between atoms: _147  and  _148
REMARK   66  A    between atoms: _150  and  _152
REMARK   67  A    between atoms: _152  and  _153
REMARK   68  A    between atoms: _152  and  _155
REMARK   69  A    between atoms: _155  and  _156
REMARK   70  A    between atoms: _159  and  _161
REMARK   71  A    between atoms: _161  and  _162
REMARK   72  A    between atoms: _164  and  _166
REMARK   73  A    between atoms: _166  and  _167
REMARK   74  A    between atoms: _169  and  _171
REMARK   75  A    between atoms: _171  and  _172
REMARK   76  A    between atoms: _171  and  _174
REMARK   77  A    between atoms: _174  and  _175
REMARK   78  A    between atoms: _181  and  _183
REMARK   79  A    between atoms: _183  and  _184
REMARK   80  A    between atoms: _183  and  _186
REMARK   81  A    between atoms: _186  and  _187
REMARK   82  A    between atoms: _190  and  _192
REMARK   83  A    between atoms: _192  and  _193
REMARK   84  A    between atoms: _192  and  _195
REMARK   85  A    between atoms: _195  and  _196
REMARK   86  A    between atoms: _196  and  _197
REMARK   87  A    between atoms: _202  and  _204
REMARK   88  A    between atoms: _204  and  _205
REMARK   89  A    between atoms: _204  and  _207
REMARK   90  A    between atoms: _207  and  _208
REMARK   91  A    between atoms: _212  and  _213
REMARK   92  A    between atoms: _218  and  _220
REMARK   93  A    between atoms: _220  and  _221
REMARK   94  A    between atoms: _220  and  _223
REMARK   95  A    between atoms: _223  and  _224
REMARK   96  A    between atoms: _228  and  _229
REMARK   97  A    between atoms: _234  and  _236
REMARK   98  A    between atoms: _236  and  _237
REMARK   99  A    between atoms: _236  and  _239
REMARK  100  A    between atoms: _242  and  _244
REMARK  101  A    between atoms: _244  and  _245
REMARK  102  A    between atoms: _244  and  _247
REMARK  103  A    between atoms: _247  and  _248
REMARK  104  A    between atoms: _253  and  _255
REMARK  105  A    between atoms: _255  and  _256
REMARK  106  A    between atoms: _255  and  _258
REMARK  107  A    between atoms: _258  and  _259
REMARK  108  A    between atoms: _262  and  _264
REMARK  109  A    between atoms: _264  and  _265
REMARK  110  A    between atoms: _264  and  _267
REMARK  111  A    between atoms: _267  and  _268
REMARK  112  A    between atoms: _271  and  _273
REMARK  113  A    between atoms: _273  and  _274
REMARK  114  A    between atoms: _276  and  _278
REMARK  115  A    between atoms: _278  and  _279
REMARK  116  A    between atoms: _278  and  _281
REMARK  117  A    between atoms: _281  and  _282
REMARK  118  A    between atoms: _282  and  _283
REMARK  119  A    between atoms: _283  and  _284
REMARK  120  A    between atoms: _293  and  _295
REMARK  121  A    between atoms: _295  and  _296
REMARK  122  A    between atoms: _295  and  _298
REMARK  123  A    between atoms: _298  and  _299
REMARK  124  A    between atoms: _304  and  _306
REMARK  125  A    between atoms: _306  and  _307
REMARK  126  A    between atoms: _306  and  _309
REMARK  127  A    between atoms: _309  and  _310
REMARK  128  A    between atoms: _310  and  _311
REMARK  129  A    between atoms: _311  and  _312
REMARK  130  A    between atoms: _321  and  _323
REMARK  131  A    between atoms: _323  and  _324
REMARK  132  A    between atoms: _323  and  _326
REMARK  133  A    between atoms: _326  and  _327
REMARK  134  A    between atoms: _330  and  _332
REMARK  135  A    between atoms: _332  and  _333
REMARK  136  A    between atoms: _332  and  _335
REMARK  137  A    between atoms: _335  and  _336
REMARK  138  A    between atoms: _339  and  _341
REMARK  139  A    between atoms: _341  and  _342
REMARK  140  A    between atoms: _341  and  _344
REMARK  141  A    between atoms: _344  and  _345
REMARK  142  A    between atoms: _348  and  _350
REMARK  143  A    between atoms: _350  and  _351
REMARK  144  A    between atoms: _350  and  _353
REMARK  145  A    between atoms: _353  and  _354
REMARK  146  A    between atoms: _357  and  _359
REMARK  147  A    between atoms: _359  and  _360
REMARK  148  A    between atoms: _362  and  _364
REMARK  149  A    between atoms: _364  and  _365
REMARK  150  A    between atoms: _368  and  _370
REMARK  151  A    between atoms: _370  and  _371
REMARK  152  A    between atoms: _370  and  _373
REMARK  153  A    between atoms: _373  and  _374
REMARK  154  A    between atoms: _377  and  _379
REMARK  155  A    between atoms: _379  and  _380
REMARK  156  A    between atoms: _379  and  _382
REMARK  157  A    between atoms: _382  and  _383
REMARK  158  A    between atoms: _386  and  _388
REMARK  159  A    between atoms: _388  and  _389
REMARK  160  A    between atoms: _388  and  _391
REMARK  161  A    between atoms: _391  and  _392
REMARK  162  A    between atoms: _395  and  _397
REMARK  163  A    between atoms: _397  and  _398
REMARK  164  A    between atoms: _397  and  _400
REMARK  165  A    between atoms: _403  and  _405
REMARK  166  A    between atoms: _405  and  _406
REMARK  167  A    between atoms: _405  and  _408
REMARK  168  A    between atoms: _408  and  _409
REMARK  169  A    between atoms: _412  and  _414
REMARK  170  A    between atoms: _414  and  _415
REMARK  171  A    between atoms: _414  and  _417
REMARK  172  A    between atoms: _418  and  _419
REMARK  173  A    between atoms: _419  and  _420
REMARK  174  A    between atoms: _420  and  _421
REMARK  175  A    between atoms: _425  and  _427
REMARK  176  A    between atoms: _427  and  _428
REMARK  177  A    between atoms: _427  and  _430
REMARK  178  A    between atoms: _430  and  _431
REMARK  179  A    between atoms: _431  and  _432
REMARK  180  A    between atoms: _434  and  _436
REMARK  181  A    between atoms: _436  and  _437
REMARK  182  A    between atoms: _436  and  _439
REMARK  183  A    between atoms: _439  and  _440
REMARK  184  A    between atoms: _443  and  _445
REMARK  185  A    between atoms: _445  and  _446
REMARK  186  A    between atoms: _448  and  _450
REMARK  187  A    between atoms: _450  and  _451
REMARK  188  A    between atoms: _453  and  _455
REMARK  189  A    between atoms: _455  and  _456
REMARK  190  A    between atoms: _455  and  _458
REMARK  191  A    between atoms: _458  and  _459
REMARK  192  A    between atoms: _462  and  _464
REMARK  193  A    between atoms: _464  and  _465
REMARK  194  A    between atoms: _467  and  _469
REMARK  195  A    between atoms: _469  and  _470
REMARK  196  A    between atoms: _472  and  _474
REMARK  197  A    between atoms: _474  and  _475
REMARK  198  A    between atoms: _474  and  _477
REMARK  199  A    between atoms: _477  and  _478
REMARK  200  A    between atoms: _484  and  _486
REMARK  201  A    between atoms: _486  and  _487
REMARK  202  A    between atoms: _486  and  _489
REMARK  203  A    between atoms: _489  and  _490
REMARK  204  A    between atoms: _493  and  _495
REMARK  205  A    between atoms: _495  and  _496
REMARK  206  A    between atoms: _495  and  _498
REMARK  207  A    between atoms: _501  and  _503
REMARK  208  A    between atoms: _503  and  _504
REMARK  209  A    between atoms: _503  and  _506
REMARK  210  A    between atoms: _506  and  _507
REMARK  211  A    between atoms: _507  and  _508
REMARK  212  A    between atoms: _513  and  _515
REMARK  213  A    between atoms: _515  and  _516
REMARK  214  A    between atoms: _515  and  _518
REMARK  215  A    between atoms: _518  and  _519
REMARK  216  A    between atoms: _523  and  _524
REMARK  217  A    between atoms: _529  and  _531
REMARK  218  A    between atoms: _531  and  _532
REMARK  219  A    between atoms: _531  and  _534
REMARK  220  A    between atoms: _534  and  _535
REMARK  221  A    between atoms: _539  and  _540
REMARK  222  A    between atoms: _545  and  _547
REMARK  223  A    between atoms: _547  and  _548
REMARK  224  A    between atoms: _547  and  _550
REMARK  225  A    between atoms: _553  and  _555
REMARK  226  A    between atoms: _555  and  _556
REMARK  227  A    between atoms: _555  and  _558
REMARK  228  A    between atoms: _558  and  _559
REMARK  229  A    between atoms: _564  and  _566
REMARK  230  A    between atoms: _566  and  _567
REMARK  231  A    between atoms: _566  and  _569
REMARK  232  A    between atoms: _569  and  _570
REMARK  233  A    between atoms: _573  and  _575
REMARK  234  A    between atoms: _575  and  _576
REMARK  235  A    between atoms: _575  and  _578
REMARK  236  A    between atoms: _578  and  _579
REMARK  237  A    between atoms: _582  and  _584
REMARK  238  A    between atoms: _584  and  _585
REMARK  239  A    between atoms: _587  and  _589
REMARK  240  A    between atoms: _589  and  _590
REMARK  241  A    between atoms: _589  and  _592
REMARK  242  A    between atoms: _592  and  _593
REMARK  243  A    between atoms: _593  and  _594
REMARK  244  A    between atoms: _594  and  _595
REMARK  245  A    between atoms: _604  and  _606
REMARK  246  A    between atoms: _606  and  _607
REMARK  247  A    between atoms: _606  and  _609
REMARK  248  A    between atoms: _609  and  _610
REMARK                            x       y       z     vdW  Elec       q    Type
REMARK                         _______ _______ _______ _____ _____    ______ ____
ROOT
ATOM      1  CB  GLN A   1      -5.646  14.772  45.599  0.00  0.00    +0.035 C 
ENDROOT
BRANCH   1   2
ATOM      2  CA  GLN A   1      -4.411  15.533  45.135  0.00  0.00    +0.134 C 
BRANCH   2   3
ATOM      3  N   GLN A   1      -3.381  14.554  44.810  0.00  0.00    -0.239 NA
ATOM      4  H   GLN A   1      -3.308  13.668  45.349  0.00  0.00    +0.142 HD
ENDBRANCH   2   3
BRANCH   2   5
ATOM      5  C   GLN A   1      -3.989  16.461  46.251  0.00  0.00    +0.224 C 
ATOM      6  O   GLN A   1      -3.753  15.997  47.355  0.00  0.00    -0.287 OA
ENDBRANCH   2   5
ENDBRANCH   1   2
BRANCH   1   7
ATOM      7  CG  GLN A   1      -6.794  15.759  45.734  0.00  0.00    +0.087 C 
BRANCH   7   8
ATOM      8  CD  GLN A   1      -7.992  15.156  46.406  0.00  0.00    +0.219 C 
ATOM      9  OE1 GLN A   1      -8.657  15.759  47.229  0.00  0.00    -0.275 OA
ATOM     10  NE2 GLN A   1      -8.285  13.929  46.026  0.00  0.00    -0.329 N 
ATOM     11 HE21 GLN A   1      -9.109  13.442  46.432  0.00  0.00    +0.145 HD
ATOM     12 HE22 GLN A   1      -7.692  13.448  45.320  0.00  0.00    +0.145 HD
ENDBRANCH   7   8
ENDBRANCH   1   7
TORSDOF 5
REMARK  Name = ../refined-set-2016/1qbt/1qbt_pocket.pdb
REMARK  248 active torsions:
REMARK  status: ('A' for Active; 'I' for Inactive)
REMARK    1  A    between atoms: _1  and  _3
REMARK    2  A    between atoms: _3  and  _4
REMARK    3  A    between atoms: _3  and  _6
REMARK    4  A    between atoms: _6  and  _7
REMARK    5  A    between atoms: _7  and  _8
REMARK    6  A    between atoms: _8  and  _9
REMARK    7  A    between atoms: _18  and  _20
REMARK    8  A    between atoms: _20  and  _21
REMARK    9  A    between atoms: _20  and  _23
REMARK   10  A    between atoms: _23  and  _24
REMARK   11  A    between atoms: _27  and  _29
REMARK   12  A    between atoms: _29  and  _30
REMARK   13  A    between atoms: _29  and  _32
REMARK   14  A    between atoms: _32  and  _33
REMARK   15  A    between atoms: _36  and  _38
REMARK   16  A    between atoms: _38  and  _39
REMARK   17  A    between atoms: _38  and  _41
REMARK   18  A    between atoms: _41  and  _42
REMARK   19  A    between atoms: _45  and  _47
REMARK   20  A    between atoms: _47  and  _48
REMARK   21  A    between atoms: _47  and  _50
REMARK   22  A    between atoms: _50  and  _51
REMARK   23  A    between atoms: _54  and  _56
REMARK   24  A    between atoms: _56  and  _57
REMARK   25  A    between atoms: _59  and  _61
REMARK   26  A    between atoms: _61  and  _62
REMARK   27  A    between atoms: _65  and  _67
REMARK   28  A    between atoms: _67  and  _68
REMARK   29  A    between atoms: _67  and  _70
REMARK   30  A    between atoms: _70  and  _71
REMARK   31  A    between atoms: _74  and  _76
REMARK   32  A    between atoms: _76  and  _77
REMARK   33  A    between atoms: _76  and  _79
REMARK   34  A    between atoms: _79  and  _80
REMARK   35  A    between atoms: _83  and  _85
REMARK   36  A    between atoms: _85  and  _86
REMARK   37  A    between atoms: _85  and  _88
REMARK   38  A    between atoms: _88  and  _89
REMARK   39  A    between atoms: _92  and  _94
REMARK   40  A    between atoms: _94  and  _95
REMARK   41  A    between atoms: _94  and  _97
REMARK   42  A    between atoms: _100  and  _102
REMARK   43  A    between atoms: _102  and  _103
REMARK   44  A    between atoms: _102  and  _105
REMARK   45  A    between atoms: _105  and  _106
REMARK   46  A    between atoms: _109  and  _111
REMARK   47  A    between atoms: _111  and  _112
REMARK   48  A    between atoms: _111  and  _114
REMARK   49  A    between atoms: _114  and  _115
REMARK   50  A    between atoms: _115  and  _116
REMARK   51  A    between atoms: _116  and  _117
REMARK   52  A    between atoms: _117  and  _118
REMARK   53  A    between atoms: _122  and  _124
REMARK   54  A    between atoms: _124  and  _125
REMARK   55  A    between atoms: _124  and  _127
REMARK   56  A    between atoms: _127  and  _128
REMARK   57  A    between atoms: _128  and  _129
REMARK   58  A    between atoms: _131  and  _133
REMARK   59  A    between atoms: _133  and  _134
REMARK   60  A    between atoms: _133  and  _136
REMARK   61  A    between atoms: _136  and  _137
REMARK   62  A    between atoms: _140  and  _142
REMARK   63  A    between atoms: _142  and  _143
REMARK   64  A    between atoms: _145  and  _147
REMARK   65  A    between atoms: _147  and  _148
REMARK   66  A    between atoms: _150  and  _152
REMARK   67  A    between atoms: _152  and  _153
REMARK   68  A    between atoms: _152  and  _155
REMARK   69  A    between atoms: _155  and  _156
REMARK   70  A    between atoms: _159  and  _161
REMARK   71  A    between atoms: _161  and  _162
REMARK   72  A    between atoms: _164  and  _166
REMARK   73  A    between atoms: _166  and  _167
REMARK   74  A    between atoms: _169  and  _171
REMARK   75  A    between atoms: _171  and  _172
REMARK   76  A    between atoms: _171  and  _174
REMARK   77  A    between atoms: _174  and  _175
REMARK   78  A    between atoms: _181  and  _183
REMARK   79  A    between atoms: _183  and  _184
REMARK   80  A    between atoms: _183  and  _186
REMARK   81  A    between atoms: _186  and  _187
REMARK   82  A    between atoms: _190  and  _192
REMARK   83  A    between atoms: _192  and  _193
REMARK   84  A    between atoms: _192  and  _195
REMARK   85  A    between atoms: _195  and  _196
REMARK   86  A    between atoms: _196  and  _197
REMARK   87  A    between atoms: _202  and  _204
REMARK   88  A    between atoms: _204  and  _205
REMARK   89  A    between atoms: _204  and  _207
REMARK   90  A    between atoms: _207  and  _208
REMARK   91  A    between atoms: _212  and  _213
REMARK   92  A    between atoms: _218  and  _220
REMARK   93  A    between atoms: _220  and  _221
REMARK   94  A    between atoms: _220  and  _223
REMARK   95  A    between atoms: _223  and  _224
REMARK   96  A    between atoms: _228  and  _229
REMARK   97  A    between atoms: _234  and  _236
REMARK   98  A    between atoms: _236  and  _237
REMARK   99  A    between atoms: _236  and  _239
REMARK  100  A    between atoms: _242  and  _244
REMARK  101  A    between atoms: _244  and  _245
REMARK  102  A    between atoms: _244  and  _247
REMARK  103  A    between atoms: _247  and  _248
REMARK  104  A    between atoms: _253  and  _255
REMARK  105  A    between atoms: _255  and  _256
REMARK  106  A    between atoms: _255  and  _258
REMARK  107  A    between atoms: _258  and  _259
REMARK  108  A    between atoms: _262  and  _264
REMARK  109  A    between atoms: _264  and  _265
REMARK  110  A    between atoms: _264  and  _267
REMARK  111  A    between atoms: _267  and  _268
REMARK  112  A    between atoms: _271  and  _273
REMARK  113  A    between atoms: _273  and  _274
REMARK  114  A    between atoms: _276  and  _278
REMARK  115  A    between atoms: _278  and  _279
REMARK  116  A    between atoms: _278  and  _281
REMARK  117  A    between atoms: _281  and  _282
REMARK  118  A    between atoms: _282  and  _283
REMARK  119  A    between atoms: _283  and  _284
REMARK  120  A    between atoms: _293  and  _295
REMARK  121  A    between atoms: _295  and  _296
REMARK  122  A    between atoms: _295  and  _298
REMARK  123  A    between atoms: _298  and  _299
REMARK  124  A    between atoms: _304  and  _306
REMARK  125  A    between atoms: _306  and  _307
REMARK  126  A    between atoms: _306  and  _309
REMARK  127  A    between atoms: _309  and  _310
REMARK  128  A    between atoms: _310  and  _311
REMARK  129  A    between atoms: _311  and  _312
REMARK  130  A    between atoms: _321  and  _323
REMARK  131  A    between atoms: _323  and  _324
REMARK  132  A    between atoms: _323  and  _326
REMARK  133  A    between atoms: _326  and  _327
REMARK  134  A    between atoms: _330  and  _332
REMARK  135  A    between atoms: _332  and  _333
REMARK  136  A    between atoms: _332  and  _335
REMARK  137  A    between atoms: _335  and  _336
REMARK  138  A    between atoms: _339  and  _341
REMARK  139  A    between atoms: _341  and  _342
REMARK  140  A    between atoms: _341  and  _344
REMARK  141  A    between atoms: _344  and  _345
REMARK  142  A    between atoms: _348  and  _350
REMARK  143  A    between atoms: _350  and  _351
REMARK  144  A    between atoms: _350  and  _353
REMARK  145  A    between atoms: _353  and  _354
REMARK  146  A    between atoms: _357  and  _359
REMARK  147  A    between atoms: _359  and  _360
REMARK  148  A    between atoms: _362  and  _364
REMARK  149  A    between atoms: _364  and  _365
REMARK  150  A    between atoms: _368  and  _370
REMARK  151  A    between atoms: _370  and  _371
REMARK  152  A    between atoms: _370  and  _373
REMARK  153  A    between atoms: _373  and  _374
REMARK  154  A    between atoms: _377  and  _379
REMARK  155  A    between atoms: _379  and  _380
REMARK  156  A    between atoms: _379  and  _382
REMARK  157  A    between atoms: _382  and  _383
REMARK  158  A    between atoms: _386  and  _388
REMARK  159  A    between atoms: _388  and  _389
REMARK  160  A    between atoms: _388  and  _391
REMARK  161  A    between atoms: _391  and  _392
REMARK  162  A    between atoms: _395  and  _397
REMARK  163  A    between atoms: _397  and  _398
REMARK  164  A    between atoms: _397  and  _400
REMARK  165  A    between atoms: _403  and  _405
REMARK  166  A    between atoms: _405  and  _406
REMARK  167  A    between atoms: _405  and  _408
REMARK  168  A    between atoms: _408  and  _409
REMARK  169  A    between atoms: _412  and  _414
REMARK  170  A    between atoms: _414  and  _415
REMARK  171  A    between atoms: _414  and  _417
REMARK  172  A    between atoms: _418  and  _419
REMARK  173  A    between atoms: _419  and  _420
REMARK  174  A    between atoms: _420  and  _421
REMARK  175  A    between atoms: _425  and  _427
REMARK  176  A    between atoms: _427  and  _428
REMARK  177  A    between atoms: _427  and  _430
REMARK  178  A    between atoms: _430  and  _431
REMARK  179  A    between atoms: _431  and  _432
REMARK  180  A    between atoms: _434  and  _436
REMARK  181  A    between atoms: _436  and  _437
REMARK  182  A    between atoms: _436  and  _439
REMARK  183  A    between atoms: _439  and  _440
REMARK  184  A    between atoms: _443  and  _445
REMARK  185  A    between atoms: _445  and  _446
REMARK  186  A    between atoms: _448  and  _450
REMARK  187  A    between atoms: _450  and  _451
REMARK  188  A    between atoms: _453  and  _455
REMARK  189  A    between atoms: _455  and  _456
REMARK  190  A    between atoms: _455  and  _458
REMARK  191  A    between atoms: _458  and  _459
REMARK  192  A    between atoms: _462  and  _464
REMARK  193  A    between atoms: _464  and  _465
REMARK  194  A    between atoms: _467  and  _469
REMARK  195  A    between atoms: _469  and  _470
REMARK  196  A    between atoms: _472  and  _474
REMARK  197  A    between atoms: _474  and  _475
REMARK  198  A    between atoms: _474  and  _477
REMARK  199  A    between atoms: _477  and  _478
REMARK  200  A    between atoms: _484  and  _486
REMARK  201  A    between atoms: _486  and  _487
REMARK  202  A    between atoms: _486  and  _489
REMARK  203  A    between atoms: _489  and  _490
REMARK  204  A    between atoms: _493  and  _495
REMARK  205  A    between atoms: _495  and  _496
REMARK  206  A    between atoms: _495  and  _498
REMARK  207  A    between atoms: _501  and  _503
REMARK  208  A    between atoms: _503  and  _504
REMARK  209  A    between atoms: _503  and  _506
REMARK  210  A    between atoms: _506  and  _507
REMARK  211  A    between atoms: _507  and  _508
REMARK  212  A    between atoms: _513  and  _515
REMARK  213  A    between atoms: _515  and  _516
REMARK  214  A    between atoms: _515  and  _518
REMARK  215  A    between atoms: _518  and  _519
REMARK  216  A    between atoms: _523  and  _524
REMARK  217  A    between atoms: _529  and  _531
REMARK  218  A    between atoms: _531  and  _532
REMARK  219  A    between atoms: _531  and  _534
REMARK  220  A    between atoms: _534  and  _535
REMARK  221  A    between atoms: _539  and  _540
REMARK  222  A    between atoms: _545  and  _547
REMARK  223  A    between atoms: _547  and  _548
REMARK  224  A    between atoms: _547  and  _550
REMARK  225  A    between atoms: _553  and  _555
REMARK  226  A    between atoms: _555  and  _556
REMARK  227  A    between atoms: _555  and  _558
REMARK  228  A    between atoms: _558  and  _559
REMARK  229  A    between atoms: _564  and  _566
REMARK  230  A    between atoms: _566  and  _567
REMARK  231  A    between atoms: _566  and  _569
REMARK  232  A    between atoms: _569  and  _570
REMARK  233  A    between atoms: _573  and  _575
REMARK  234  A    between atoms: _575  and  _576
REMARK  235  A    between atoms: _575  and  _578
REMARK  236  A    between atoms: _578  and  _579
REMARK  237  A    between atoms: _582  and  _584
REMARK  238  A    between atoms: _584  and  _585
REMARK  239  A    between atoms: _587  and  _589
REMARK  240  A    between atoms: _589  and  _590
REMARK  241  A    between atoms: _589  and  _592
REMARK  242  A    between atoms: _592  and  _593
REMARK  243  A    between atoms: _593  and  _594
REMARK  244  A    between atoms: _594  and  _595
REMARK  245  A    between atoms: _604  and  _606
REMARK  246  A    between atoms: _606  and  _607
REMARK  247  A    between atoms: _606  and  _609
REMARK  248  A    between atoms: _609  and  _610
REMARK                            x       y       z     vdW  Elec       q    Type
REMARK                         _______ _______ _______ _____ _____    ______ ____
ROOT
ATOM      1  CA  LEU A   1      -4.295  17.605  40.967  0.00  0.00    +0.133 C 
ENDROOT
BRANCH   1   2
ATOM      2  N   LEU A   1      -4.880  18.924  41.103  0.00  0.00    -0.239 NA
ATOM      3  H   LEU A   1      -5.266  19.429  40.280  0.00  0.00    +0.142 HD
ENDBRANCH   1   2
BRANCH   1   4
ATOM      4  C   LEU A   1      -2.981  17.834  40.300  0.00  0.00    +0.224 C 
ATOM      5  O   LEU A   1      -2.888  18.662  39.401  0.00  0.00    -0.287 OA
ENDBRANCH   1   4
BRANCH   1   6
ATOM      6  CB  LEU A   1      -5.210  16.804  40.044  0.00  0.00    +0.025 C 
BRANCH   6   7
ATOM      7  CG  LEU A   1      -6.365  15.988  40.651  0.00  0.00    +0.002 C 
ATOM      8  CD2 LEU A   1      -6.970  16.546  41.930  0.00  0.00    +0.000 C 
ATOM      9  CD1 LEU A   1      -7.407  15.757  39.563  0.00  0.00    +0.000 C 
ENDBRANCH   6   7
ENDBRANCH   1   6
TORSDOF 4
REMARK  Name = ../refined-set-2016/1qbt/1qbt_pocket.pdb
REMARK  248 active torsions:
REMARK  status: ('A' for Active; 'I' for Inactive)
REMARK    1  A    between atoms: _1  and  _3
REMARK    2  A    between atoms: _3  and  _4
REMARK    3  A    between atoms: _3  and  _6
REMARK    4  A    between atoms: _6  and  _7
REMARK    5  A    between atoms: _7  and  _8
REMARK    6  A    between atoms: _8  and  _9
REMARK    7  A    between atoms: _18  and  _20
REMARK    8  A    between atoms: _20  and  _21
REMARK    9  A    between atoms: _20  and  _23
REMARK   10  A    between atoms: _23  and  _24
REMARK   11  A    between atoms: _27  and  _29
REMARK   12  A    between atoms: _29  and  _30
REMARK   13  A    between atoms: _29  and  _32
REMARK   14  A    between atoms: _32  and  _33
REMARK   15  A    between atoms: _36  and  _38
REMARK   16  A    between atoms: _38  and  _39
REMARK   17  A    between atoms: _38  and  _41
REMARK   18  A    between atoms: _41  and  _42
REMARK   19  A    between atoms: _45  and  _47
REMARK   20  A    between atoms: _47  and  _48
REMARK   21  A    between atoms: _47  and  _50
REMARK   22  A    between atoms: _50  and  _51
REMARK   23  A    between atoms: _54  and  _56
REMARK   24  A    between atoms: _56  and  _57
REMARK   25  A    between atoms: _59  and  _61
REMARK   26  A    between atoms: _61  and  _62
REMARK   27  A    between atoms: _65  and  _67
REMARK   28  A    between atoms: _67  and  _68
REMARK   29  A    between atoms: _67  and  _70
REMARK   30  A    between atoms: _70  and  _71
REMARK   31  A    between atoms: _74  and  _76
REMARK   32  A    between atoms: _76  and  _77
REMARK   33  A    between atoms: _76  and  _79
REMARK   34  A    between atoms: _79  and  _80
REMARK   35  A    between atoms: _83  and  _85
REMARK   36  A    between atoms: _85  and  _86
REMARK   37  A    between atoms: _85  and  _88
REMARK   38  A    between atoms: _88  and  _89
REMARK   39  A    between atoms: _92  and  _94
REMARK   40  A    between atoms: _94  and  _95
REMARK   41  A    between atoms: _94  and  _97
REMARK   42  A    between atoms: _100  and  _102
REMARK   43  A    between atoms: _102  and  _103
REMARK   44  A    between atoms: _102  and  _105
REMARK   45  A    between atoms: _105  and  _106
REMARK   46  A    between atoms: _109  and  _111
REMARK   47  A    between atoms: _111  and  _112
REMARK   48  A    between atoms: _111  and  _114
REMARK   49  A    between atoms: _114  and  _115
REMARK   50  A    between atoms: _115  and  _116
REMARK   51  A    between atoms: _116  and  _117
REMARK   52  A    between atoms: _117  and  _118
REMARK   53  A    between atoms: _122  and  _124
REMARK   54  A    between atoms: _124  and  _125
REMARK   55  A    between atoms: _124  and  _127
REMARK   56  A    between atoms: _127  and  _128
REMARK   57  A    between atoms: _128  and  _129
REMARK   58  A    between atoms: _131  and  _133
REMARK   59  A    between atoms: _133  and  _134
REMARK   60  A    between atoms: _133  and  _136
REMARK   61  A    between atoms: _136  and  _137
REMARK   62  A    between atoms: _140  and  _142
REMARK   63  A    between atoms: _142  and  _143
REMARK   64  A    between atoms: _145  and  _147
REMARK   65  A    between atoms: _147  and  _148
REMARK   66  A    between atoms: _150  and  _152
REMARK   67  A    between atoms: _152  and  _153
REMARK   68  A    between atoms: _152  and  _155
REMARK   69  A    between atoms: _155  and  _156
REMARK   70  A    between atoms: _159  and  _161
REMARK   71  A    between atoms: _161  and  _162
REMARK   72  A    between atoms: _164  and  _166
REMARK   73  A    between atoms: _166  and  _167
REMARK   74  A    between atoms: _169  and  _171
REMARK   75  A    between atoms: _171  and  _172
REMARK   76  A    between atoms: _171  and  _174
REMARK   77  A    between atoms: _174  and  _175
REMARK   78  A    between atoms: _181  and  _183
REMARK   79  A    between atoms: _183  and  _184
REMARK   80  A    between atoms: _183  and  _186
REMARK   81  A    between atoms: _186  and  _187
REMARK   82  A    between atoms: _190  and  _192
REMARK   83  A    between atoms: _192  and  _193
REMARK   84  A    between atoms: _192  and  _195
REMARK   85  A    between atoms: _195  and  _196
REMARK   86  A    between atoms: _196  and  _197
REMARK   87  A    between atoms: _202  and  _204
REMARK   88  A    between atoms: _204  and  _205
REMARK   89  A    between atoms: _204  and  _207
REMARK   90  A    between atoms: _207  and  _208
REMARK   91  A    between atoms: _212  and  _213
REMARK   92  A    between atoms: _218  and  _220
REMARK   93  A    between atoms: _220  and  _221
REMARK   94  A    between atoms: _220  and  _223
REMARK   95  A    between atoms: _223  and  _224
REMARK   96  A    between atoms: _228  and  _229
REMARK   97  A    between atoms: _234  and  _236
REMARK   98  A    between atoms: _236  and  _237
REMARK   99  A    between atoms: _236  and  _239
REMARK  100  A    between atoms: _242  and  _244
REMARK  101  A    between atoms: _244  and  _245
REMARK  102  A    between atoms: _244  and  _247
REMARK  103  A    between atoms: _247  and  _248
REMARK  104  A    between atoms: _253  and  _255
REMARK  105  A    between atoms: _255  and  _256
REMARK  106  A    between atoms: _255  and  _258
REMARK  107  A    between atoms: _258  and  _259
REMARK  108  A    between atoms: _262  and  _264
REMARK  109  A    between atoms: _264  and  _265
REMARK  110  A    between atoms: _264  and  _267
REMARK  111  A    between atoms: _267  and  _268
REMARK  112  A    between atoms: _271  and  _273
REMARK  113  A    between atoms: _273  and  _274
REMARK  114  A    between atoms: _276  and  _278
REMARK  115  A    between atoms: _278  and  _279
REMARK  116  A    between atoms: _278  and  _281
REMARK  117  A    between atoms: _281  and  _282
REMARK  118  A    between atoms: _282  and  _283
REMARK  119  A    between atoms: _283  and  _284
REMARK  120  A    between atoms: _293  and  _295
REMARK  121  A    between atoms: _295  and  _296
REMARK  122  A    between atoms: _295  and  _298
REMARK  123  A    between atoms: _298  and  _299
REMARK  124  A    between atoms: _304  and  _306
REMARK  125  A    between atoms: _306  and  _307
REMARK  126  A    between atoms: _306  and  _309
REMARK  127  A    between atoms: _309  and  _310
REMARK  128  A    between atoms: _310  and  _311
REMARK  129  A    between atoms: _311  and  _312
REMARK  130  A    between atoms: _321  and  _323
REMARK  131  A    between atoms: _323  and  _324
REMARK  132  A    between atoms: _323  and  _326
REMARK  133  A    between atoms: _326  and  _327
REMARK  134  A    between atoms: _330  and  _332
REMARK  135  A    between atoms: _332  and  _333
REMARK  136  A    between atoms: _332  and  _335
REMARK  137  A    between atoms: _335  and  _336
REMARK  138  A    between atoms: _339  and  _341
REMARK  139  A    between atoms: _341  and  _342
REMARK  140  A    between atoms: _341  and  _344
REMARK  141  A    between atoms: _344  and  _345
REMARK  142  A    between atoms: _348  and  _350
REMARK  143  A    between atoms: _350  and  _351
REMARK  144  A    between atoms: _350  and  _353
REMARK  145  A    between atoms: _353  and  _354
REMARK  146  A    between atoms: _357  and  _359
REMARK  147  A    between atoms: _359  and  _360
REMARK  148  A    between atoms: _362  and  _364
REMARK  149  A    between atoms: _364  and  _365
REMARK  150  A    between atoms: _368  and  _370
REMARK  151  A    between atoms: _370  and  _371
REMARK  152  A    between atoms: _370  and  _373
REMARK  153  A    between atoms: _373  and  _374
REMARK  154  A    between atoms: _377  and  _379
REMARK  155  A    between atoms: _379  and  _380
REMARK  156  A    between atoms: _379  and  _382
REMARK  157  A    between atoms: _382  and  _383
REMARK  158  A    between atoms: _386  and  _388
REMARK  159  A    between atoms: _388  and  _389
REMARK  160  A    between atoms: _388  and  _391
REMARK  161  A    between atoms: _391  and  _392
REMARK  162  A    between atoms: _395  and  _397
REMARK  163  A    between atoms: _397  and  _398
REMARK  164  A    between atoms: _397  and  _400
REMARK  165  A    between atoms: _403  and  _405
REMARK  166  A    between atoms: _405  and  _406
REMARK  167  A    between atoms: _405  and  _408
REMARK  168  A    between atoms: _408  and  _409
REMARK  169  A    between atoms: _412  and  _414
REMARK  170  A    between atoms: _414  and  _415
REMARK  171  A    between atoms: _414  and  _417
REMARK  172  A    between atoms: _418  and  _419
REMARK  173  A    between atoms: _419  and  _420
REMARK  174  A    between atoms: _420  and  _421
REMARK  175  A    between atoms: _425  and  _427
REMARK  176  A    between atoms: _427  and  _428
REMARK  177  A    between atoms: _427  and  _430
REMARK  178  A    between atoms: _430  and  _431
REMARK  179  A    between atoms: _431  and  _432
REMARK  180  A    between atoms: _434  and  _436
REMARK  181  A    between atoms: _436  and  _437
REMARK  182  A    between atoms: _436  and  _439
REMARK  183  A    between atoms: _439  and  _440
REMARK  184  A    between atoms: _443  and  _445
REMARK  185  A    between atoms: _445  and  _446
REMARK  186  A    between atoms: _448  and  _450
REMARK  187  A    between atoms: _450  and  _451
REMARK  188  A    between atoms: _453  and  _455
REMARK  189  A    between atoms: _455  and  _456
REMARK  190  A    between atoms: _455  and  _458
REMARK  191  A    between atoms: _458  and  _459
REMARK  192  A    between atoms: _462  and  _464
REMARK  193  A    between atoms: _464  and  _465
REMARK  194  A    between atoms: _467  and  _469
REMARK  195  A    between atoms: _469  and  _470
REMARK  196  A    between atoms: _472  and  _474
REMARK  197  A    between atoms: _474  and  _475
REMARK  198  A    between atoms: _474  and  _477
REMARK  199  A    between atoms: _477  and  _478
REMARK  200  A    between atoms: _484  and  _486
REMARK  201  A    between atoms: _486  and  _487
REMARK  202  A    between atoms: _486  and  _489
REMARK  203  A    between atoms: _489  and  _490
REMARK  204  A    between atoms: _493  and  _495
REMARK  205  A    between atoms: _495  and  _496
REMARK  206  A    between atoms: _495  and  _498
REMARK  207  A    between atoms: _501  and  _503
REMARK  208  A    between atoms: _503  and  _504
REMARK  209  A    between atoms: _503  and  _506
REMARK  210  A    between atoms: _506  and  _507
REMARK  211  A    between atoms: _507  and  _508
REMARK  212  A    between atoms: _513  and  _515
REMARK  213  A    between atoms: _515  and  _516
REMARK  214  A    between atoms: _515  and  _518
REMARK  215  A    between atoms: _518  and  _519
REMARK  216  A    between atoms: _523  and  _524
REMARK  217  A    between atoms: _529  and  _531
REMARK  218  A    between atoms: _531  and  _532
REMARK  219  A    between atoms: _531  and  _534
REMARK  220  A    between atoms: _534  and  _535
REMARK  221  A    between atoms: _539  and  _540
REMARK  222  A    between atoms: _545  and  _547
REMARK  223  A    between atoms: _547  and  _548
REMARK  224  A    between atoms: _547  and  _550
REMARK  225  A    between atoms: _553  and  _555
REMARK  226  A    between atoms: _555  and  _556
REMARK  227  A    between atoms: _555  and  _558
REMARK  228  A    between atoms: _558  and  _559
REMARK  229  A    between atoms: _564  and  _566
REMARK  230  A    between atoms: _566  and  _567
REMARK  231  A    between atoms: _566  and  _569
REMARK  232  A    between atoms: _569  and  _570
REMARK  233  A    between atoms: _573  and  _575
REMARK  234  A    between atoms: _575  and  _576
REMARK  235  A    between atoms: _575  and  _578
REMARK  236  A    between atoms: _578  and  _579
REMARK  237  A    between atoms: _582  and  _584
REMARK  238  A    between atoms: _584  and  _585
REMARK  239  A    between atoms: _587  and  _589
REMARK  240  A    between atoms: _589  and  _590
REMARK  241  A    between atoms: _589  and  _592
REMARK  242  A    between atoms: _592  and  _593
REMARK  243  A    between atoms: _593  and  _594
REMARK  244  A    between atoms: _594  and  _595
REMARK  245  A    between atoms: _604  and  _606
REMARK  246  A    between atoms: _606  and  _607
REMARK  247  A    between atoms: _606  and  _609
REMARK  248  A    between atoms: _609  and  _610
REMARK                            x       y       z     vdW  Elec       q    Type
REMARK                         _______ _______ _______ _____ _____    ______ ____
ROOT
ATOM      1  CA  ILE A   6      -5.726  22.531  32.965  0.00  0.00    +0.149 C 
ENDROOT
BRANCH   1   3
ATOM      2  C   ASN A   5      -3.392  22.883  32.468  0.00  0.00    +0.241 C 
ATOM      3  N   ILE A   6      -4.303  22.342  33.255  0.00  0.00    -0.297 N 
ATOM      4  H   ILE A   6      -4.010  21.782  34.081  0.00  0.00    +0.150 HD
ATOM      5  O   ASN A   5      -3.675  23.551  31.485  0.00  0.00    -0.273 OA
BRANCH   2   6
ATOM      6  CA  ASN A   5      -1.945  22.613  32.787  0.00  0.00    +0.158 C 
BRANCH   6   9
ATOM      7  C   VAL A   4      -1.500  21.151  31.039  0.00  0.00    +0.241 C 
ATOM      8  O   VAL A   4      -2.079  20.285  31.667  0.00  0.00    -0.273 OA
ATOM      9  N   ASN A   5      -1.308  22.351  31.506  0.00  0.00    -0.297 N 
ATOM     10  H   ASN A   5      -0.744  23.065  31.003  0.00  0.00    +0.150 HD
BRANCH   7  11
ATOM     11  CA  VAL A   4      -0.947  20.852  29.691  0.00  0.00    +0.149 C 
BRANCH  11  13
ATOM     12  C   PRO A   3       0.478  18.990  29.115  0.00  0.00    +0.241 C 
ATOM     13  N   VAL A   4      -0.607  19.423  29.744  0.00  0.00    -0.297 N 
ATOM     14  H   VAL A   4      -1.211  18.758  30.269  0.00  0.00    +0.150 HD
ATOM     15  O   PRO A   3       1.301  19.747  28.623  0.00  0.00    -0.273 OA
BRANCH  12  22
ATOM     16  C   THR A   2       0.250  16.745  31.189  0.00  0.00    +0.246 C 
ATOM     17  O   THR A   2       1.271  17.283  31.570  0.00  0.00    -0.273 OA
ATOM     18  N   PRO A   3      -0.126  16.694  29.922  0.00  0.00    -0.272 N 
ATOM     19  CD  PRO A   3      -1.156  15.825  29.349  0.00  0.00    +0.094 C 
ATOM     20  CG  PRO A   3      -0.783  15.704  27.886  0.00  0.00    +0.024 C 
ATOM     21  CB  PRO A   3      -0.180  17.084  27.633  0.00  0.00    +0.031 C 
ATOM     22  CA  PRO A   3       0.572  17.491  28.920  0.00  0.00    +0.152 C 
BRANCH  16  23
ATOM     23  CA  THR A   2      -0.676  16.059  32.156  0.00  0.00    +0.176 C 
BRANCH  23  25
ATOM     24  C   PRO A   1       0.703  14.361  33.045  0.00  0.00    +0.239 C 
ATOM     25  N   THR A   2       0.129  15.529  33.231  0.00  0.00    -0.295 N 
ATOM     26  H   THR A   2       0.251  16.053  34.121  0.00  0.00    +0.150 HD
ATOM     27  O   PRO A   1       0.488  13.675  32.058  0.00  0.00    -0.274 OA
BRANCH  24  32
ATOM     28  N   PRO A   1       1.059  13.955  35.509  0.00  0.00    -0.210 NA
ATOM     29  CD  PRO A   1       0.660  12.629  35.981  0.00  0.00    +0.089 C 
ATOM     30  CG  PRO A   1       0.891  11.706  34.792  0.00  0.00    +0.021 C 
ATOM     31  CB  PRO A   1       1.998  12.434  34.030  0.00  0.00    +0.028 C 
ATOM     32  CA  PRO A   1       1.640  13.921  34.158  0.00  0.00    +0.149 C 
ENDBRANCH  24  32
ENDBRANCH  23  25
BRANCH  23  33
ATOM     33  CB  THR A   2      -1.693  17.014  32.790  0.00  0.00    +0.137 C 
ATOM     34  CG2 THR A   2      -1.049  18.056  33.686  0.00  0.00    +0.034 C 
BRANCH  33  35
ATOM     35  OG1 THR A   2      -2.506  17.628  31.784  0.00  0.00    -0.382 OA
ATOM     36  HG1 THR A   2      -1.930  18.140  31.163  0.00  0.00    +0.210 HD
ENDBRANCH  33  35
ENDBRANCH  23  33
ENDBRANCH  16  23
ENDBRANCH  12  22
ENDBRANCH  11  13
BRANCH  11  37
ATOM     37  CB  VAL A   4      -2.044  21.140  28.636  0.00  0.00    +0.027 C 
ATOM     38  CG2 VAL A   4      -2.384  22.622  28.550  0.00  0.00    +0.002 C 
ATOM     39  CG1 VAL A   4      -1.629  20.710  27.246  0.00  0.00    +0.002 C 
ENDBRANCH  11  37
ENDBRANCH   7  11
ENDBRANCH   6   9
BRANCH   6  40
ATOM     40  CB  ASN A   5      -1.318  23.851  33.440  0.00  0.00    +0.114 C 
BRANCH  40  41
ATOM     41  CG  ASN A   5       0.101  23.622  33.872  0.00  0.00    +0.222 C 
ATOM     42  OD1 ASN A   5       0.415  22.682  34.572  0.00  0.00    -0.275 OA
ATOM     43  ND2 ASN A   5       0.990  24.505  33.441  0.00  0.00    -0.329 N 
ATOM     44 HD21 ASN A   5       1.992  24.404  33.701  0.00  0.00    +0.145 HD
ATOM     45 HD22 ASN A   5       0.686  25.299  32.842  0.00  0.00    +0.145 HD
ENDBRANCH  40  41
ENDBRANCH   6  40
ENDBRANCH   2   6
ENDBRANCH   1   3
BRANCH   1  46
ATOM     46  C   ILE A   6      -6.457  23.095  34.169  0.00  0.00    +0.241 C 
ATOM     47  O   ILE A   6      -6.358  22.581  35.276  0.00  0.00    -0.273 OA
ATOM     48  N   ILE A   7      -7.190  24.177  33.908  0.00  0.00    -0.297 N 
ATOM     49  H   ILE A   7      -7.117  24.646  32.983  0.00  0.00    +0.150 HD
BRANCH  48  50
ATOM     50  CA  ILE A   7      -8.092  24.699  34.922  0.00  0.00    +0.149 C 
BRANCH  50  51
ATOM     51  C   ILE A   7      -9.478  24.185  34.608  0.00  0.00    +0.241 C 
ATOM     52  N   GLY A   8     -10.053  23.495  35.572  0.00  0.00    -0.295 N 
ATOM     53  H   GLY A   8      -9.665  23.462  36.536  0.00  0.00    +0.150 HD
ATOM     54  O   ILE A   7      -9.987  24.371  33.514  0.00  0.00    -0.273 OA
BRANCH  52  55
ATOM     55  CA  GLY A   8     -11.259  22.786  35.203  0.00  0.00    +0.176 C 
BRANCH  55  56
ATOM     56  C   GLY A   8     -12.371  23.324  36.021  0.00  0.00    +0.243 C 
ATOM     57  O   GLY A   8     -12.181  24.216  36.838  0.00  0.00    -0.273 OA
ATOM     58  N   ARG A   9     -13.546  22.767  35.822  0.00  0.00    -0.297 N 
ATOM     59  H   ARG A   9     -13.604  21.916  35.227  0.00  0.00    +0.150 HD
BRANCH  58  60
ATOM     60  CA  ARG A   9     -14.780  23.307  36.412  0.00  0.00    +0.149 C 
BRANCH  60  61
ATOM     61  C   ARG A   9     -14.807  23.605  37.898  0.00  0.00    +0.241 C 
ATOM     62  N   ASN A  10     -14.120  22.768  38.658  0.00  0.00    -0.298 N 
ATOM     63  H   ASN A  10     -13.717  21.888  38.277  0.00  0.00    +0.150 HD
ATOM     64  O   ARG A   9     -15.367  24.591  38.362  0.00  0.00    -0.273 OA
BRANCH  62  65
ATOM     65  CA  ASN A  10     -13.956  23.147  40.071  0.00  0.00    +0.146 C 
BRANCH  65  66
ATOM     66  C   ASN A  10     -13.338  24.503  40.366  0.00  0.00    +0.227 C 
ATOM     67  O   ASN A  10     -13.566  25.091  41.405  0.00  0.00    -0.286 OA
ENDBRANCH  65  66
BRANCH  65  68
ATOM     68  CB  ASN A  10     -13.167  22.090  40.861  0.00  0.00    +0.112 C 
BRANCH  68  69
ATOM     69  CG  ASN A  10     -11.665  22.239  40.691  0.00  0.00    +0.222 C 
ATOM     70  OD1 ASN A  10     -10.926  22.525  41.613  0.00  0.00    -0.275 OA
ATOM     71  ND2 ASN A  10     -11.230  22.086  39.459  0.00  0.00    -0.329 N 
ATOM     72 HD21 ASN A  10     -10.220  22.210  39.245  0.00  0.00    +0.145 HD
ATOM     73 HD22 ASN A  10     -11.896  21.841  38.699  0.00  0.00    +0.145 HD
ENDBRANCH  68  69
ENDBRANCH  65  68
ENDBRANCH  62  65
ENDBRANCH  60  61
BRANCH  60  74
ATOM     74  CB  ARG A   9     -15.945  22.393  36.076  0.00  0.00    +0.033 C 
BRANCH  74  75
ATOM     75  CG  ARG A   9     -16.307  22.441  34.594  0.00  0.00    +0.045 C 
BRANCH  75  76
ATOM     76  CD  ARG A   9     -17.666  21.799  34.348  0.00  0.00    +0.174 C 
BRANCH  76  77
ATOM     77  NE  ARG A   9     -17.678  20.423  34.816  0.00  0.00    -0.265 N 
ATOM     78  CZ  ARG A   9     -18.407  20.055  35.874  0.00  0.00    +0.342 C 
ATOM     79  NH2 ARG A   9     -19.104  20.937  36.591  0.00  0.00    -0.292 N 
ATOM     80 HH21 ARG A   9     -19.661  20.618  37.409  0.00  0.00    +0.255 HD
ATOM     81 HH22 ARG A   9     -19.090  21.944  36.332  0.00  0.00    +0.255 HD
ATOM     82  NH1 ARG A   9     -18.428  18.775  36.228  0.00  0.00    -0.292 N 
ATOM     83 HH11 ARG A   9     -18.990  18.472  37.049  0.00  0.00    +0.255 HD
ATOM     84 HH12 ARG A   9     -17.882  18.076  35.684  0.00  0.00    +0.255 HD
ATOM     85  HE  ARG A   9     -17.108  19.710  34.317  0.00  0.00    +0.259 HD
ENDBRANCH  76  77
ENDBRANCH  75  76
ENDBRANCH  74  75
ENDBRANCH  60  74
ENDBRANCH  58  60
ENDBRANCH  55  56
ENDBRANCH  52  55
ENDBRANCH  50  51
BRANCH  50  86
ATOM     86  CB  ILE A   7      -8.102  26.233  34.889  0.00  0.00    +0.027 C 
ATOM     87  CG2 ILE A   7      -8.950  26.788  36.029  0.00  0.00    +0.002 C 
BRANCH  86  88
ATOM     88  CG1 ILE A   7      -6.717  26.891  34.917  0.00  0.00    +0.002 C 
ATOM     89  CD1 ILE A   7      -5.951  26.700  36.231  0.00  0.00    +0.000 C 
ENDBRANCH  86  88
ENDBRANCH  50  86
ENDBRANCH  48  50
ENDBRANCH   1  46
BRANCH   1  90
ATOM     90  CB  ILE A   6      -6.300  21.175  32.548  0.00  0.00    +0.027 C 
ATOM     91  CG2 ILE A   6      -7.832  21.118  32.575  0.00  0.00    +0.002 C 
BRANCH  90  92
ATOM     92  CG1 ILE A   6      -5.796  20.846  31.149  0.00  0.00    +0.002 C 
ATOM     93  CD1 ILE A   6      -5.971  19.391  30.765  0.00  0.00    +0.000 C 
ENDBRANCH  90  92
ENDBRANCH   1  90
TORSDOF 33
REMARK  Name = ../refined-set-2016/1qbt/1qbt_pocket.pdb
REMARK  248 active torsions:
REMARK  status: ('A' for Active; 'I' for Inactive)
REMARK    1  A    between atoms: _1  and  _3
REMARK    2  A    between atoms: _3  and  _4
REMARK    3  A    between atoms: _3  and  _6
REMARK    4  A    between atoms: _6  and  _7
REMARK    5  A    between atoms: _7  and  _8
REMARK    6  A    between atoms: _8  and  _9
REMARK    7  A    between atoms: _18  and  _20
REMARK    8  A    between atoms: _20  and  _21
REMARK    9  A    between atoms: _20  and  _23
REMARK   10  A    between atoms: _23  and  _24
REMARK   11  A    between atoms: _27  and  _29
REMARK   12  A    between atoms: _29  and  _30
REMARK   13  A    between atoms: _29  and  _32
REMARK   14  A    between atoms: _32  and  _33
REMARK   15  A    between atoms: _36  and  _38
REMARK   16  A    between atoms: _38  and  _39
REMARK   17  A    between atoms: _38  and  _41
REMARK   18  A    between atoms: _41  and  _42
REMARK   19  A    between atoms: _45  and  _47
REMARK   20  A    between atoms: _47  and  _48
REMARK   21  A    between atoms: _47  and  _50
REMARK   22  A    between atoms: _50  and  _51
REMARK   23  A    between atoms: _54  and  _56
REMARK   24  A    between atoms: _56  and  _57
REMARK   25  A    between atoms: _59  and  _61
REMARK   26  A    between atoms: _61  and  _62
REMARK   27  A    between atoms: _65  and  _67
REMARK   28  A    between atoms: _67  and  _68
REMARK   29  A    between atoms: _67  and  _70
REMARK   30  A    between atoms: _70  and  _71
REMARK   31  A    between atoms: _74  and  _76
REMARK   32  A    between atoms: _76  and  _77
REMARK   33  A    between atoms: _76  and  _79
REMARK   34  A    between atoms: _79  and  _80
REMARK   35  A    between atoms: _83  and  _85
REMARK   36  A    between atoms: _85  and  _86
REMARK   37  A    between atoms: _85  and  _88
REMARK   38  A    between atoms: _88  and  _89
REMARK   39  A    between atoms: _92  and  _94
REMARK   40  A    between atoms: _94  and  _95
REMARK   41  A    between atoms: _94  and  _97
REMARK   42  A    between atoms: _100  and  _102
REMARK   43  A    between atoms: _102  and  _103
REMARK   44  A    between atoms: _102  and  _105
REMARK   45  A    between atoms: _105  and  _106
REMARK   46  A    between atoms: _109  and  _111
REMARK   47  A    between atoms: _111  and  _112
REMARK   48  A    between atoms: _111  and  _114
REMARK   49  A    between atoms: _114  and  _115
REMARK   50  A    between atoms: _115  and  _116
REMARK   51  A    between atoms: _116  and  _117
REMARK   52  A    between atoms: _117  and  _118
REMARK   53  A    between atoms: _122  and  _124
REMARK   54  A    between atoms: _124  and  _125
REMARK   55  A    between atoms: _124  and  _127
REMARK   56  A    between atoms: _127  and  _128
REMARK   57  A    between atoms: _128  and  _129
REMARK   58  A    between atoms: _131  and  _133
REMARK   59  A    between atoms: _133  and  _134
REMARK   60  A    between atoms: _133  and  _136
REMARK   61  A    between atoms: _136  and  _137
REMARK   62  A    between atoms: _140  and  _142
REMARK   63  A    between atoms: _142  and  _143
REMARK   64  A    between atoms: _145  and  _147
REMARK   65  A    between atoms: _147  and  _148
REMARK   66  A    between atoms: _150  and  _152
REMARK   67  A    between atoms: _152  and  _153
REMARK   68  A    between atoms: _152  and  _155
REMARK   69  A    between atoms: _155  and  _156
REMARK   70  A    between atoms: _159  and  _161
REMARK   71  A    between atoms: _161  and  _162
REMARK   72  A    between atoms: _164  and  _166
REMARK   73  A    between atoms: _166  and  _167
REMARK   74  A    between atoms: _169  and  _171
REMARK   75  A    between atoms: _171  and  _172
REMARK   76  A    between atoms: _171  and  _174
REMARK   77  A    between atoms: _174  and  _175
REMARK   78  A    between atoms: _181  and  _183
REMARK   79  A    between atoms: _183  and  _184
REMARK   80  A    between atoms: _183  and  _186
REMARK   81  A    between atoms: _186  and  _187
REMARK   82  A    between atoms: _190  and  _192
REMARK   83  A    between atoms: _192  and  _193
REMARK   84  A    between atoms: _192  and  _195
REMARK   85  A    between atoms: _195  and  _196
REMARK   86  A    between atoms: _196  and  _197
REMARK   87  A    between atoms: _202  and  _204
REMARK   88  A    between atoms: _204  and  _205
REMARK   89  A    between atoms: _204  and  _207
REMARK   90  A    between atoms: _207  and  _208
REMARK   91  A    between atoms: _212  and  _213
REMARK   92  A    between atoms: _218  and  _220
REMARK   93  A    between atoms: _220  and  _221
REMARK   94  A    between atoms: _220  and  _223
REMARK   95  A    between atoms: _223  and  _224
REMARK   96  A    between atoms: _228  and  _229
REMARK   97  A    between atoms: _234  and  _236
REMARK   98  A    between atoms: _236  and  _237
REMARK   99  A    between atoms: _236  and  _239
REMARK  100  A    between atoms: _242  and  _244
REMARK  101  A    between atoms: _244  and  _245
REMARK  102  A    between atoms: _244  and  _247
REMARK  103  A    between atoms: _247  and  _248
REMARK  104  A    between atoms: _253  and  _255
REMARK  105  A    between atoms: _255  and  _256
REMARK  106  A    between atoms: _255  and  _258
REMARK  107  A    between atoms: _258  and  _259
REMARK  108  A    between atoms: _262  and  _264
REMARK  109  A    between atoms: _264  and  _265
REMARK  110  A    between atoms: _264  and  _267
REMARK  111  A    between atoms: _267  and  _268
REMARK  112  A    between atoms: _271  and  _273
REMARK  113  A    between atoms: _273  and  _274
REMARK  114  A    between atoms: _276  and  _278
REMARK  115  A    between atoms: _278  and  _279
REMARK  116  A    between atoms: _278  and  _281
REMARK  117  A    between atoms: _281  and  _282
REMARK  118  A    between atoms: _282  and  _283
REMARK  119  A    between atoms: _283  and  _284
REMARK  120  A    between atoms: _293  and  _295
REMARK  121  A    between atoms: _295  and  _296
REMARK  122  A    between atoms: _295  and  _298
REMARK  123  A    between atoms: _298  and  _299
REMARK  124  A    between atoms: _304  and  _306
REMARK  125  A    between atoms: _306  and  _307
REMARK  126  A    between atoms: _306  and  _309
REMARK  127  A    between atoms: _309  and  _310
REMARK  128  A    between atoms: _310  and  _311
REMARK  129  A    between atoms: _311  and  _312
REMARK  130  A    between atoms: _321  and  _323
REMARK  131  A    between atoms: _323  and  _324
REMARK  132  A    between atoms: _323  and  _326
REMARK  133  A    between atoms: _326  and  _327
REMARK  134  A    between atoms: _330  and  _332
REMARK  135  A    between atoms: _332  and  _333
REMARK  136  A    between atoms: _332  and  _335
REMARK  137  A    between atoms: _335  and  _336
REMARK  138  A    between atoms: _339  and  _341
REMARK  139  A    between atoms: _341  and  _342
REMARK  140  A    between atoms: _341  and  _344
REMARK  141  A    between atoms: _344  and  _345
REMARK  142  A    between atoms: _348  and  _350
REMARK  143  A    between atoms: _350  and  _351
REMARK  144  A    between atoms: _350  and  _353
REMARK  145  A    between atoms: _353  and  _354
REMARK  146  A    between atoms: _357  and  _359
REMARK  147  A    between atoms: _359  and  _360
REMARK  148  A    between atoms: _362  and  _364
REMARK  149  A    between atoms: _364  and  _365
REMARK  150  A    between atoms: _368  and  _370
REMARK  151  A    between atoms: _370  and  _371
REMARK  152  A    between atoms: _370  and  _373
REMARK  153  A    between atoms: _373  and  _374
REMARK  154  A    between atoms: _377  and  _379
REMARK  155  A    between atoms: _379  and  _380
REMARK  156  A    between atoms: _379  and  _382
REMARK  157  A    between atoms: _382  and  _383
REMARK  158  A    between atoms: _386  and  _388
REMARK  159  A    between atoms: _388  and  _389
REMARK  160  A    between atoms: _388  and  _391
REMARK  161  A    between atoms: _391  and  _392
REMARK  162  A    between atoms: _395  and  _397
REMARK  163  A    between atoms: _397  and  _398
REMARK  164  A    between atoms: _397  and  _400
REMARK  165  A    between atoms: _403  and  _405
REMARK  166  A    between atoms: _405  and  _406
REMARK  167  A    between atoms: _405  and  _408
REMARK  168  A    between atoms: _408  and  _409
REMARK  169  A    between atoms: _412  and  _414
REMARK  170  A    between atoms: _414  and  _415
REMARK  171  A    between atoms: _414  and  _417
REMARK  172  A    between atoms: _418  and  _419
REMARK  173  A    between atoms: _419  and  _420
REMARK  174  A    between atoms: _420  and  _421
REMARK  175  A    between atoms: _425  and  _427
REMARK  176  A    between atoms: _427  and  _428
REMARK  177  A    between atoms: _427  and  _430
REMARK  178  A    between atoms: _430  and  _431
REMARK  179  A    between atoms: _431  and  _432
REMARK  180  A    between atoms: _434  and  _436
REMARK  181  A    between atoms: _436  and  _437
REMARK  182  A    between atoms: _436  and  _439
REMARK  183  A    between atoms: _439  and  _440
REMARK  184  A    between atoms: _443  and  _445
REMARK  185  A    between atoms: _445  and  _446
REMARK  186  A    between atoms: _448  and  _450
REMARK  187  A    between atoms: _450  and  _451
REMARK  188  A    between atoms: _453  and  _455
REMARK  189  A    between atoms: _455  and  _456
REMARK  190  A    between atoms: _455  and  _458
REMARK  191  A    between atoms: _458  and  _459
REMARK  192  A    between atoms: _462  and  _464
REMARK  193  A    between atoms: _464  and  _465
REMARK  194  A    between atoms: _467  and  _469
REMARK  195  A    between atoms: _469  and  _470
REMARK  196  A    between atoms: _472  and  _474
REMARK  197  A    between atoms: _474  and  _475
REMARK  198  A    between atoms: _474  and  _477
REMARK  199  A    between atoms: _477  and  _478
REMARK  200  A    between atoms: _484  and  _486
REMARK  201  A    between atoms: _486  and  _487
REMARK  202  A    between atoms: _486  and  _489
REMARK  203  A    between atoms: _489  and  _490
REMARK  204  A    between atoms: _493  and  _495
REMARK  205  A    between atoms: _495  and  _496
REMARK  206  A    between atoms: _495  and  _498
REMARK  207  A    between atoms: _501  and  _503
REMARK  208  A    between atoms: _503  and  _504
REMARK  209  A    between atoms: _503  and  _506
REMARK  210  A    between atoms: _506  and  _507
REMARK  211  A    between atoms: _507  and  _508
REMARK  212  A    between atoms: _513  and  _515
REMARK  213  A    between atoms: _515  and  _516
REMARK  214  A    between atoms: _515  and  _518
REMARK  215  A    between atoms: _518  and  _519
REMARK  216  A    between atoms: _523  and  _524
REMARK  217  A    between atoms: _529  and  _531
REMARK  218  A    between atoms: _531  and  _532
REMARK  219  A    between atoms: _531  and  _534
REMARK  220  A    between atoms: _534  and  _535
REMARK  221  A    between atoms: _539  and  _540
REMARK  222  A    between atoms: _545  and  _547
REMARK  223  A    between atoms: _547  and  _548
REMARK  224  A    between atoms: _547  and  _550
REMARK  225  A    between atoms: _553  and  _555
REMARK  226  A    between atoms: _555  and  _556
REMARK  227  A    between atoms: _555  and  _558
REMARK  228  A    between atoms: _558  and  _559
REMARK  229  A    between atoms: _564  and  _566
REMARK  230  A    between atoms: _566  and  _567
REMARK  231  A    between atoms: _566  and  _569
REMARK  232  A    between atoms: _569  and  _570
REMARK  233  A    between atoms: _573  and  _575
REMARK  234  A    between atoms: _575  and  _576
REMARK  235  A    between atoms: _575  and  _578
REMARK  236  A    between atoms: _578  and  _579
REMARK  237  A    between atoms: _582  and  _584
REMARK  238  A    between atoms: _584  and  _585
REMARK  239  A    between atoms: _587  and  _589
REMARK  240  A    between atoms: _589  and  _590
REMARK  241  A    between atoms: _589  and  _592
REMARK  242  A    between atoms: _592  and  _593
REMARK  243  A    between atoms: _593  and  _594
REMARK  244  A    between atoms: _594  and  _595
REMARK  245  A    between atoms: _604  and  _606
REMARK  246  A    between atoms: _606  and  _607
REMARK  247  A    between atoms: _606  and  _609
REMARK  248  A    between atoms: _609  and  _610
REMARK                            x       y       z     vdW  Elec       q    Type
REMARK                         _______ _______ _______ _____ _____    ______ ____
ROOT
ATOM      1  NE  ARG A   1     -18.663  15.841  32.127  0.00  0.00    -0.265 N 
ATOM      2  CZ  ARG A   1     -17.927  14.748  31.850  0.00  0.00    +0.342 C 
ATOM      3  NH2 ARG A   1     -18.315  13.514  32.177  0.00  0.00    -0.292 N 
ATOM      4 HH21 ARG A   1     -19.220  13.366  32.667  0.00  0.00    +0.255 HD
ATOM      5 HH22 ARG A   1     -17.712  12.700  31.942  0.00  0.00    +0.255 HD
ATOM      6  NH1 ARG A   1     -16.762  14.901  31.229  0.00  0.00    -0.292 N 
ATOM      7 HH11 ARG A   1     -16.178  14.070  31.006  0.00  0.00    +0.255 HD
ATOM      8 HH12 ARG A   1     -16.434  15.852  30.966  0.00  0.00    +0.255 HD
ATOM      9  HE  ARG A   1     -18.333  16.765  31.783  0.00  0.00    +0.259 HD
ENDROOT
BRANCH   1  10
ATOM     10  CD  ARG A   1     -19.912  15.781  32.895  0.00  0.00    +0.174 C 
BRANCH  10  11
ATOM     11  CG  ARG A   1     -20.255  17.165  33.466  0.00  0.00    +0.045 C 
BRANCH  11  12
ATOM     12  CB  ARG A   1     -20.874  18.092  32.433  0.00  0.00    +0.029 C 
BRANCH  12  13
ATOM     13  CA  ARG A   1     -21.053  19.557  32.861  0.00  0.00    +0.133 C 
BRANCH  13  14
ATOM     14  N   ARG A   1     -21.751  19.673  34.148  0.00  0.00    -0.239 NA
ATOM     15  H   ARG A   1     -22.110  18.837  34.651  0.00  0.00    +0.142 HD
ENDBRANCH  13  14
BRANCH  13  16
ATOM     16  C   ARG A   1     -21.858  20.219  31.779  0.00  0.00    +0.224 C 
ATOM     17  O   ARG A   1     -23.061  20.023  31.698  0.00  0.00    -0.287 OA
ENDBRANCH  13  16
ENDBRANCH  12  13
ENDBRANCH  11  12
ENDBRANCH  10  11
ENDBRANCH   1  10
TORSDOF 6
REMARK  Name = ../refined-set-2016/1qbt/1qbt_pocket.pdb
REMARK  248 active torsions:
REMARK  status: ('A' for Active; 'I' for Inactive)
REMARK    1  A    between atoms: _1  and  _3
REMARK    2  A    between atoms: _3  and  _4
REMARK    3  A    between atoms: _3  and  _6
REMARK    4  A    between atoms: _6  and  _7
REMARK    5  A    between atoms: _7  and  _8
REMARK    6  A    between atoms: _8  and  _9
REMARK    7  A    between atoms: _18  and  _20
REMARK    8  A    between atoms: _20  and  _21
REMARK    9  A    between atoms: _20  and  _23
REMARK   10  A    between atoms: _23  and  _24
REMARK   11  A    between atoms: _27  and  _29
REMARK   12  A    between atoms: _29  and  _30
REMARK   13  A    between atoms: _29  and  _32
REMARK   14  A    between atoms: _32  and  _33
REMARK   15  A    between atoms: _36  and  _38
REMARK   16  A    between atoms: _38  and  _39
REMARK   17  A    between atoms: _38  and  _41
REMARK   18  A    between atoms: _41  and  _42
REMARK   19  A    between atoms: _45  and  _47
REMARK   20  A    between atoms: _47  and  _48
REMARK   21  A    between atoms: _47  and  _50
REMARK   22  A    between atoms: _50  and  _51
REMARK   23  A    between atoms: _54  and  _56
REMARK   24  A    between atoms: _56  and  _57
REMARK   25  A    between atoms: _59  and  _61
REMARK   26  A    between atoms: _61  and  _62
REMARK   27  A    between atoms: _65  and  _67
REMARK   28  A    between atoms: _67  and  _68
REMARK   29  A    between atoms: _67  and  _70
REMARK   30  A    between atoms: _70  and  _71
REMARK   31  A    between atoms: _74  and  _76
REMARK   32  A    between atoms: _76  and  _77
REMARK   33  A    between atoms: _76  and  _79
REMARK   34  A    between atoms: _79  and  _80
REMARK   35  A    between atoms: _83  and  _85
REMARK   36  A    between atoms: _85  and  _86
REMARK   37  A    between atoms: _85  and  _88
REMARK   38  A    between atoms: _88  and  _89
REMARK   39  A    between atoms: _92  and  _94
REMARK   40  A    between atoms: _94  and  _95
REMARK   41  A    between atoms: _94  and  _97
REMARK   42  A    between atoms: _100  and  _102
REMARK   43  A    between atoms: _102  and  _103
REMARK   44  A    between atoms: _102  and  _105
REMARK   45  A    between atoms: _105  and  _106
REMARK   46  A    between atoms: _109  and  _111
REMARK   47  A    between atoms: _111  and  _112
REMARK   48  A    between atoms: _111  and  _114
REMARK   49  A    between atoms: _114  and  _115
REMARK   50  A    between atoms: _115  and  _116
REMARK   51  A    between atoms: _116  and  _117
REMARK   52  A    between atoms: _117  and  _118
REMARK   53  A    between atoms: _122  and  _124
REMARK   54  A    between atoms: _124  and  _125
REMARK   55  A    between atoms: _124  and  _127
REMARK   56  A    between atoms: _127  and  _128
REMARK   57  A    between atoms: _128  and  _129
REMARK   58  A    between atoms: _131  and  _133
REMARK   59  A    between atoms: _133  and  _134
REMARK   60  A    between atoms: _133  and  _136
REMARK   61  A    between atoms: _136  and  _137
REMARK   62  A    between atoms: _140  and  _142
REMARK   63  A    between atoms: _142  and  _143
REMARK   64  A    between atoms: _145  and  _147
REMARK   65  A    between atoms: _147  and  _148
REMARK   66  A    between atoms: _150  and  _152
REMARK   67  A    between atoms: _152  and  _153
REMARK   68  A    between atoms: _152  and  _155
REMARK   69  A    between atoms: _155  and  _156
REMARK   70  A    between atoms: _159  and  _161
REMARK   71  A    between atoms: _161  and  _162
REMARK   72  A    between atoms: _164  and  _166
REMARK   73  A    between atoms: _166  and  _167
REMARK   74  A    between atoms: _169  and  _171
REMARK   75  A    between atoms: _171  and  _172
REMARK   76  A    between atoms: _171  and  _174
REMARK   77  A    between atoms: _174  and  _175
REMARK   78  A    between atoms: _181  and  _183
REMARK   79  A    between atoms: _183  and  _184
REMARK   80  A    between atoms: _183  and  _186
REMARK   81  A    between atoms: _186  and  _187
REMARK   82  A    between atoms: _190  and  _192
REMARK   83  A    between atoms: _192  and  _193
REMARK   84  A    between atoms: _192  and  _195
REMARK   85  A    between atoms: _195  and  _196
REMARK   86  A    between atoms: _196  and  _197
REMARK   87  A    between atoms: _202  and  _204
REMARK   88  A    between atoms: _204  and  _205
REMARK   89  A    between atoms: _204  and  _207
REMARK   90  A    between atoms: _207  and  _208
REMARK   91  A    between atoms: _212  and  _213
REMARK   92  A    between atoms: _218  and  _220
REMARK   93  A    between atoms: _220  and  _221
REMARK   94  A    between atoms: _220  and  _223
REMARK   95  A    between atoms: _223  and  _224
REMARK   96  A    between atoms: _228  and  _229
REMARK   97  A    between atoms: _234  and  _236
REMARK   98  A    between atoms: _236  and  _237
REMARK   99  A    between atoms: _236  and  _239
REMARK  100  A    between atoms: _242  and  _244
REMARK  101  A    between atoms: _244  and  _245
REMARK  102  A    between atoms: _244  and  _247
REMARK  103  A    between atoms: _247  and  _248
REMARK  104  A    between atoms: _253  and  _255
REMARK  105  A    between atoms: _255  and  _256
REMARK  106  A    between atoms: _255  and  _258
REMARK  107  A    between atoms: _258  and  _259
REMARK  108  A    between atoms: _262  and  _264
REMARK  109  A    between atoms: _264  and  _265
REMARK  110  A    between atoms: _264  and  _267
REMARK  111  A    between atoms: _267  and  _268
REMARK  112  A    between atoms: _271  and  _273
REMARK  113  A    between atoms: _273  and  _274
REMARK  114  A    between atoms: _276  and  _278
REMARK  115  A    between atoms: _278  and  _279
REMARK  116  A    between atoms: _278  and  _281
REMARK  117  A    between atoms: _281  and  _282
REMARK  118  A    between atoms: _282  and  _283
REMARK  119  A    between atoms: _283  and  _284
REMARK  120  A    between atoms: _293  and  _295
REMARK  121  A    between atoms: _295  and  _296
REMARK  122  A    between atoms: _295  and  _298
REMARK  123  A    between atoms: _298  and  _299
REMARK  124  A    between atoms: _304  and  _306
REMARK  125  A    between atoms: _306  and  _307
REMARK  126  A    between atoms: _306  and  _309
REMARK  127  A    between atoms: _309  and  _310
REMARK  128  A    between atoms: _310  and  _311
REMARK  129  A    between atoms: _311  and  _312
REMARK  130  A    between atoms: _321  and  _323
REMARK  131  A    between atoms: _323  and  _324
REMARK  132  A    between atoms: _323  and  _326
REMARK  133  A    between atoms: _326  and  _327
REMARK  134  A    between atoms: _330  and  _332
REMARK  135  A    between atoms: _332  and  _333
REMARK  136  A    between atoms: _332  and  _335
REMARK  137  A    between atoms: _335  and  _336
REMARK  138  A    between atoms: _339  and  _341
REMARK  139  A    between atoms: _341  and  _342
REMARK  140  A    between atoms: _341  and  _344
REMARK  141  A    between atoms: _344  and  _345
REMARK  142  A    between atoms: _348  and  _350
REMARK  143  A    between atoms: _350  and  _351
REMARK  144  A    between atoms: _350  and  _353
REMARK  145  A    between atoms: _353  and  _354
REMARK  146  A    between atoms: _357  and  _359
REMARK  147  A    between atoms: _359  and  _360
REMARK  148  A    between atoms: _362  and  _364
REMARK  149  A    between atoms: _364  and  _365
REMARK  150  A    between atoms: _368  and  _370
REMARK  151  A    between atoms: _370  and  _371
REMARK  152  A    between atoms: _370  and  _373
REMARK  153  A    between atoms: _373  and  _374
REMARK  154  A    between atoms: _377  and  _379
REMARK  155  A    between atoms: _379  and  _380
REMARK  156  A    between atoms: _379  and  _382
REMARK  157  A    between atoms: _382  and  _383
REMARK  158  A    between atoms: _386  and  _388
REMARK  159  A    between atoms: _388  and  _389
REMARK  160  A    between atoms: _388  and  _391
REMARK  161  A    between atoms: _391  and  _392
REMARK  162  A    between atoms: _395  and  _397
REMARK  163  A    between atoms: _397  and  _398
REMARK  164  A    between atoms: _397  and  _400
REMARK  165  A    between atoms: _403  and  _405
REMARK  166  A    between atoms: _405  and  _406
REMARK  167  A    between atoms: _405  and  _408
REMARK  168  A    between atoms: _408  and  _409
REMARK  169  A    between atoms: _412  and  _414
REMARK  170  A    between atoms: _414  and  _415
REMARK  171  A    between atoms: _414  and  _417
REMARK  172  A    between atoms: _418  and  _419
REMARK  173  A    between atoms: _419  and  _420
REMARK  174  A    between atoms: _420  and  _421
REMARK  175  A    between atoms: _425  and  _427
REMARK  176  A    between atoms: _427  and  _428
REMARK  177  A    between atoms: _427  and  _430
REMARK  178  A    between atoms: _430  and  _431
REMARK  179  A    between atoms: _431  and  _432
REMARK  180  A    between atoms: _434  and  _436
REMARK  181  A    between atoms: _436  and  _437
REMARK  182  A    between atoms: _436  and  _439
REMARK  183  A    between atoms: _439  and  _440
REMARK  184  A    between atoms: _443  and  _445
REMARK  185  A    between atoms: _445  and  _446
REMARK  186  A    between atoms: _448  and  _450
REMARK  187  A    between atoms: _450  and  _451
REMARK  188  A    between atoms: _453  and  _455
REMARK  189  A    between atoms: _455  and  _456
REMARK  190  A    between atoms: _455  and  _458
REMARK  191  A    between atoms: _458  and  _459
REMARK  192  A    between atoms: _462  and  _464
REMARK  193  A    between atoms: _464  and  _465
REMARK  194  A    between atoms: _467  and  _469
REMARK  195  A    between atoms: _469  and  _470
REMARK  196  A    between atoms: _472  and  _474
REMARK  197  A    between atoms: _474  and  _475
REMARK  198  A    between atoms: _474  and  _477
REMARK  199  A    between atoms: _477  and  _478
REMARK  200  A    between atoms: _484  and  _486
REMARK  201  A    between atoms: _486  and  _487
REMARK  202  A    between atoms: _486  and  _489
REMARK  203  A    between atoms: _489  and  _490
REMARK  204  A    between atoms: _493  and  _495
REMARK  205  A    between atoms: _495  and  _496
REMARK  206  A    between atoms: _495  and  _498
REMARK  207  A    between atoms: _501  and  _503
REMARK  208  A    between atoms: _503  and  _504
REMARK  209  A    between atoms: _503  and  _506
REMARK  210  A    between atoms: _506  and  _507
REMARK  211  A    between atoms: _507  and  _508
REMARK  212  A    between atoms: _513  and  _515
REMARK  213  A    between atoms: _515  and  _516
REMARK  214  A    between atoms: _515  and  _518
REMARK  215  A    between atoms: _518  and  _519
REMARK  216  A    between atoms: _523  and  _524
REMARK  217  A    between atoms: _529  and  _531
REMARK  218  A    between atoms: _531  and  _532
REMARK  219  A    between atoms: _531  and  _534
REMARK  220  A    between atoms: _534  and  _535
REMARK  221  A    between atoms: _539  and  _540
REMARK  222  A    between atoms: _545  and  _547
REMARK  223  A    between atoms: _547  and  _548
REMARK  224  A    between atoms: _547  and  _550
REMARK  225  A    between atoms: _553  and  _555
REMARK  226  A    between atoms: _555  and  _556
REMARK  227  A    between atoms: _555  and  _558
REMARK  228  A    between atoms: _558  and  _559
REMARK  229  A    between atoms: _564  and  _566
REMARK  230  A    between atoms: _566  and  _567
REMARK  231  A    between atoms: _566  and  _569
REMARK  232  A    between atoms: _569  and  _570
REMARK  233  A    between atoms: _573  and  _575
REMARK  234  A    between atoms: _575  and  _576
REMARK  235  A    between atoms: _575  and  _578
REMARK  236  A    between atoms: _578  and  _579
REMARK  237  A    between atoms: _582  and  _584
REMARK  238  A    between atoms: _584  and  _585
REMARK  239  A    between atoms: _587  and  _589
REMARK  240  A    between atoms: _589  and  _590
REMARK  241  A    between atoms: _589  and  _592
REMARK  242  A    between atoms: _592  and  _593
REMARK  243  A    between atoms: _593  and  _594
REMARK  244  A    between atoms: _594  and  _595
REMARK  245  A    between atoms: _604  and  _606
REMARK  246  A    between atoms: _606  and  _607
REMARK  247  A    between atoms: _606  and  _609
REMARK  248  A    between atoms: _609  and  _610
REMARK                            x       y       z     vdW  Elec       q    Type
REMARK                         _______ _______ _______ _____ _____    ______ ____
ROOT
ATOM      1  C   ALA A   6     -10.262  21.097  21.756  0.00  0.00    +0.241 C 
ATOM      2  O   ALA A   6     -11.120  21.844  21.345  0.00  0.00    -0.273 OA
ATOM      3  N   ASP A   7      -9.168  20.813  21.083  0.00  0.00    -0.297 N 
ATOM      4  H   ASP A   7      -8.466  20.157  21.481  0.00  0.00    +0.150 HD
ENDROOT
BRANCH   1   5
ATOM      5  CA  ALA A   6     -10.382  20.432  23.079  0.00  0.00    +0.149 C 
ATOM      6  CB  ALA A   6     -11.529  19.458  23.028  0.00  0.00    +0.031 C 
BRANCH   5   9
ATOM      7  C   GLY A   5      -9.583  21.792  24.821  0.00  0.00    +0.243 C 
ATOM      8  O   GLY A   5      -8.459  21.398  24.574  0.00  0.00    -0.273 OA
ATOM      9  N   ALA A   6     -10.625  21.428  24.091  0.00  0.00    -0.297 N 
ATOM     10  H   ALA A   6     -11.569  21.839  24.240  0.00  0.00    +0.150 HD
BRANCH   7  11
ATOM     11  CA  GLY A   5      -9.894  22.659  26.018  0.00  0.00    +0.176 C 
BRANCH  11  13
ATOM     12  C   THR A   4     -11.486  24.231  25.313  0.00  0.00    +0.243 C 
ATOM     13  N   GLY A   5     -11.271  23.128  26.001  0.00  0.00    -0.295 N 
ATOM     14  H   GLY A   5     -12.034  22.626  26.498  0.00  0.00    +0.150 HD
ATOM     15  O   THR A   4     -10.571  24.826  24.771  0.00  0.00    -0.273 OA
BRANCH  12  16
ATOM     16  CA  THR A   4     -12.941  24.695  25.296  0.00  0.00    +0.176 C 
BRANCH  16  18
ATOM     17  C   ASP A   3     -14.166  22.670  24.938  0.00  0.00    +0.241 C 
ATOM     18  N   THR A   4     -13.922  23.697  25.728  0.00  0.00    -0.295 N 
ATOM     19  H   THR A   4     -14.415  23.796  26.638  0.00  0.00    +0.150 HD
ATOM     20  O   ASP A   3     -13.592  22.505  23.878  0.00  0.00    -0.273 OA
BRANCH  17  21
ATOM     21  CA  ASP A   3     -15.137  21.661  25.469  0.00  0.00    +0.160 C 
BRANCH  21  24
ATOM     22  C   LEU A   2     -17.460  21.754  25.677  0.00  0.00    +0.241 C 
ATOM     23  O   LEU A   2     -17.353  21.892  26.895  0.00  0.00    -0.273 OA
ATOM     24  N   ASP A   3     -16.436  21.761  24.849  0.00  0.00    -0.297 N 
ATOM     25  H   ASP A   3     -16.555  21.834  23.818  0.00  0.00    +0.150 HD
BRANCH  22  26
ATOM     26  CA  LEU A   2     -18.807  21.571  25.033  0.00  0.00    +0.149 C 
BRANCH  26  28
ATOM     27  C   LEU A   1     -19.124  19.267  25.328  0.00  0.00    +0.238 C 
ATOM     28  N   LEU A   2     -19.500  20.470  25.695  0.00  0.00    -0.297 N 
ATOM     29  H   LEU A   2     -20.240  20.628  26.408  0.00  0.00    +0.150 HD
ATOM     30  O   LEU A   1     -18.318  19.089  24.429  0.00  0.00    -0.274 OA
BRANCH  27  31
ATOM     31  CA  LEU A   1     -19.747  18.114  26.069  0.00  0.00    +0.145 C 
BRANCH  31  32
ATOM     32  N   LEU A   1     -20.377  17.208  25.127  0.00  0.00    -0.238 NA
ATOM     33  H   LEU A   1     -19.792  16.459  24.705  0.00  0.00    +0.142 HD
ENDBRANCH  31  32
BRANCH  31  34
ATOM     34  CB  LEU A   1     -18.669  17.252  26.738  0.00  0.00    +0.026 C 
BRANCH  34  35
ATOM     35  CG  LEU A   1     -17.658  17.930  27.633  0.00  0.00    +0.002 C 
ATOM     36  CD2 LEU A   1     -18.338  18.484  28.868  0.00  0.00    +0.000 C 
ATOM     37  CD1 LEU A   1     -16.562  16.934  27.982  0.00  0.00    +0.000 C 
ENDBRANCH  34  35
ENDBRANCH  31  34
ENDBRANCH  27  31
ENDBRANCH  26  28
BRANCH  26  38
ATOM     38  CB  LEU A   2     -19.544  22.893  25.217  0.00  0.00    +0.029 C 
BRANCH  38  39
ATOM     39  CG  LEU A   2     -20.982  22.893  24.741  0.00  0.00    +0.002 C 
ATOM     40  CD2 LEU A   2     -21.697  24.116  25.304  0.00  0.00    +0.000 C 
ATOM     41  CD1 LEU A   2     -21.043  22.850  23.216  0.00  0.00    +0.000 C 
ENDBRANCH  38  39
ENDBRANCH  26  38
ENDBRANCH  22  26
ENDBRANCH  21  24
BRANCH  21  42
ATOM     42  CB  ASP A   3     -14.656  20.249  25.155  0.00  0.00    +0.143 C 
BRANCH  42  43
ATOM     43  CG  ASP A   3     -13.639  19.754  26.148  0.00  0.00    +0.367 C 
ATOM     44  OD2 ASP A   3     -13.815  18.642  26.630  0.00  0.00    -0.246 OA
ATOM     45  OD1 ASP A   3     -12.685  20.472  26.445  0.00  0.00    -0.246 OA
ENDBRANCH  42  43
ENDBRANCH  21  42
ENDBRANCH  17  21
ENDBRANCH  16  18
BRANCH  16  46
ATOM     46  CB  THR A   4     -13.125  25.959  26.177  0.00  0.00    +0.137 C 
ATOM     47  CG2 THR A   4     -14.498  26.612  25.946  0.00  0.00    +0.034 C 
BRANCH  46  48
ATOM     48  OG1 THR A   4     -12.960  25.645  27.578  0.00  0.00    -0.382 OA
ATOM     49  HG1 THR A   4     -12.051  25.283  27.729  0.00  0.00    +0.210 HD
ENDBRANCH  46  48
ENDBRANCH  16  46
ENDBRANCH  12  16
ENDBRANCH  11  13
ENDBRANCH   7  11
ENDBRANCH   5   9
ENDBRANCH   1   5
BRANCH   3  50
ATOM     50  CA  ASP A   7      -8.944  21.420  19.780  0.00  0.00    +0.160 C 
BRANCH  50  51
ATOM     51  C   ASP A   7      -9.842  20.849  18.747  0.00  0.00    +0.241 C 
ATOM     52  N   ASP A   8     -10.055  19.557  18.887  0.00  0.00    -0.297 N 
ATOM     53  H   ASP A   8      -9.677  19.037  19.705  0.00  0.00    +0.150 HD
ATOM     54  O   ASP A   7     -10.316  21.530  17.861  0.00  0.00    -0.273 OA
BRANCH  52  55
ATOM     55  CA  ASP A   8     -10.832  18.881  17.868  0.00  0.00    +0.160 C 
BRANCH  55  56
ATOM     56  C   ASP A   8     -12.081  18.333  18.474  0.00  0.00    +0.241 C 
ATOM     57  O   ASP A   8     -12.138  18.114  19.671  0.00  0.00    -0.273 OA
ATOM     58  N   THR A   9     -13.077  18.133  17.635  0.00  0.00    -0.295 N 
ATOM     59  H   THR A   9     -12.995  18.459  16.651  0.00  0.00    +0.150 HD
BRANCH  58  60
ATOM     60  CA  THR A   9     -14.293  17.459  18.073  0.00  0.00    +0.176 C 
BRANCH  60  61
ATOM     61  C   THR A   9     -14.123  15.969  17.956  0.00  0.00    +0.243 C 
ATOM     62  N   VAL A  10     -14.494  15.282  19.013  0.00  0.00    -0.297 N 
ATOM     63  H   VAL A  10     -14.973  15.756  19.805  0.00  0.00    +0.150 HD
ATOM     64  O   THR A   9     -13.637  15.463  16.957  0.00  0.00    -0.273 OA
BRANCH  62  65
ATOM     65  CA  VAL A  10     -14.228  13.849  19.065  0.00  0.00    +0.149 C 
BRANCH  65  66
ATOM     66  C   VAL A  10     -15.465  13.148  19.581  0.00  0.00    +0.241 C 
ATOM     67  O   VAL A  10     -15.933  13.438  20.667  0.00  0.00    -0.273 OA
ATOM     68  N   LEU A  11     -16.014  12.254  18.778  0.00  0.00    -0.298 N 
ATOM     69  H   LEU A  11     -15.562  12.019  17.871  0.00  0.00    +0.150 HD
BRANCH  68  70
ATOM     70  CA  LEU A  11     -17.244  11.605  19.165  0.00  0.00    +0.137 C 
BRANCH  70  71
ATOM     71  C   LEU A  11     -16.973  10.156  19.359  0.00  0.00    +0.227 C 
ATOM     72  O   LEU A  11     -16.065   9.583  18.777  0.00  0.00    -0.286 OA
ENDBRANCH  70  71
BRANCH  70  73
ATOM     73  CB  LEU A  11     -18.277  11.747  18.046  0.00  0.00    +0.028 C 
BRANCH  73  74
ATOM     74  CG  LEU A  11     -18.692  13.166  17.654  0.00  0.00    +0.002 C 
ATOM     75  CD2 LEU A  11     -18.873  14.088  18.847  0.00  0.00    +0.000 C 
ATOM     76  CD1 LEU A  11     -20.040  13.092  16.951  0.00  0.00    +0.000 C 
ENDBRANCH  73  74
ENDBRANCH  70  73
ENDBRANCH  68  70
ENDBRANCH  65  66
BRANCH  65  77
ATOM     77  CB  VAL A  10     -13.079  13.567  20.041  0.00  0.00    +0.027 C 
ATOM     78  CG2 VAL A  10     -12.661  12.091  19.960  0.00  0.00    +0.002 C 
ATOM     79  CG1 VAL A  10     -11.887  14.475  19.767  0.00  0.00    +0.002 C 
ENDBRANCH  65  77
ENDBRANCH  62  65
ENDBRANCH  60  61
BRANCH  60  80
ATOM     80  CB  THR A   9     -15.427  17.952  17.173  0.00  0.00    +0.137 C 
ATOM     81  CG2 THR A   9     -16.727  17.168  17.360  0.00  0.00    +0.034 C 
BRANCH  80  82
ATOM     82  OG1 THR A   9     -15.616  19.365  17.415  0.00  0.00    -0.382 OA
ATOM     83  HG1 THR A   9     -14.779  19.850  17.204  0.00  0.00    +0.210 HD
ENDBRANCH  80  82
ENDBRANCH  60  80
ENDBRANCH  58  60
ENDBRANCH  55  56
BRANCH  55  84
ATOM     84  CB  ASP A   8      -9.957  17.765  17.289  0.00  0.00    +0.143 C 
BRANCH  84  85
ATOM     85  CG  ASP A   8      -8.740  18.342  16.573  0.00  0.00    +0.367 C 
ATOM     86  OD2 ASP A   8      -7.736  17.640  16.433  0.00  0.00    -0.246 OA
ATOM     87  OD1 ASP A   8      -8.798  19.502  16.161  0.00  0.00    -0.246 OA
ENDBRANCH  84  85
ENDBRANCH  55  84
ENDBRANCH  52  55
ENDBRANCH  50  51
BRANCH  50  88
ATOM     88  CB  ASP A   7      -7.517  21.157  19.309  0.00  0.00    +0.143 C 
BRANCH  88  89
ATOM     89  CG  ASP A   7      -6.478  21.826  20.198  0.00  0.00    +0.367 C 
ATOM     90  OD2 ASP A   7      -6.791  22.775  20.911  0.00  0.00    -0.246 OA
ATOM     91  OD1 ASP A   7      -5.335  21.392  20.171  0.00  0.00    -0.246 OA
ENDBRANCH  88  89
ENDBRANCH  50  88
ENDBRANCH   3  50
TORSDOF 39
REMARK  Name = ../refined-set-2016/1qbt/1qbt_pocket.pdb
REMARK  248 active torsions:
REMARK  status: ('A' for Active; 'I' for Inactive)
REMARK    1  A    between atoms: _1  and  _3
REMARK    2  A    between atoms: _3  and  _4
REMARK    3  A    between atoms: _3  and  _6
REMARK    4  A    between atoms: _6  and  _7
REMARK    5  A    between atoms: _7  and  _8
REMARK    6  A    between atoms: _8  and  _9
REMARK    7  A    between atoms: _18  and  _20
REMARK    8  A    between atoms: _20  and  _21
REMARK    9  A    between atoms: _20  and  _23
REMARK   10  A    between atoms: _23  and  _24
REMARK   11  A    between atoms: _27  and  _29
REMARK   12  A    between atoms: _29  and  _30
REMARK   13  A    between atoms: _29  and  _32
REMARK   14  A    between atoms: _32  and  _33
REMARK   15  A    between atoms: _36  and  _38
REMARK   16  A    between atoms: _38  and  _39
REMARK   17  A    between atoms: _38  and  _41
REMARK   18  A    between atoms: _41  and  _42
REMARK   19  A    between atoms: _45  and  _47
REMARK   20  A    between atoms: _47  and  _48
REMARK   21  A    between atoms: _47  and  _50
REMARK   22  A    between atoms: _50  and  _51
REMARK   23  A    between atoms: _54  and  _56
REMARK   24  A    between atoms: _56  and  _57
REMARK   25  A    between atoms: _59  and  _61
REMARK   26  A    between atoms: _61  and  _62
REMARK   27  A    between atoms: _65  and  _67
REMARK   28  A    between atoms: _67  and  _68
REMARK   29  A    between atoms: _67  and  _70
REMARK   30  A    between atoms: _70  and  _71
REMARK   31  A    between atoms: _74  and  _76
REMARK   32  A    between atoms: _76  and  _77
REMARK   33  A    between atoms: _76  and  _79
REMARK   34  A    between atoms: _79  and  _80
REMARK   35  A    between atoms: _83  and  _85
REMARK   36  A    between atoms: _85  and  _86
REMARK   37  A    between atoms: _85  and  _88
REMARK   38  A    between atoms: _88  and  _89
REMARK   39  A    between atoms: _92  and  _94
REMARK   40  A    between atoms: _94  and  _95
REMARK   41  A    between atoms: _94  and  _97
REMARK   42  A    between atoms: _100  and  _102
REMARK   43  A    between atoms: _102  and  _103
REMARK   44  A    between atoms: _102  and  _105
REMARK   45  A    between atoms: _105  and  _106
REMARK   46  A    between atoms: _109  and  _111
REMARK   47  A    between atoms: _111  and  _112
REMARK   48  A    between atoms: _111  and  _114
REMARK   49  A    between atoms: _114  and  _115
REMARK   50  A    between atoms: _115  and  _116
REMARK   51  A    between atoms: _116  and  _117
REMARK   52  A    between atoms: _117  and  _118
REMARK   53  A    between atoms: _122  and  _124
REMARK   54  A    between atoms: _124  and  _125
REMARK   55  A    between atoms: _124  and  _127
REMARK   56  A    between atoms: _127  and  _128
REMARK   57  A    between atoms: _128  and  _129
REMARK   58  A    between atoms: _131  and  _133
REMARK   59  A    between atoms: _133  and  _134
REMARK   60  A    between atoms: _133  and  _136
REMARK   61  A    between atoms: _136  and  _137
REMARK   62  A    between atoms: _140  and  _142
REMARK   63  A    between atoms: _142  and  _143
REMARK   64  A    between atoms: _145  and  _147
REMARK   65  A    between atoms: _147  and  _148
REMARK   66  A    between atoms: _150  and  _152
REMARK   67  A    between atoms: _152  and  _153
REMARK   68  A    between atoms: _152  and  _155
REMARK   69  A    between atoms: _155  and  _156
REMARK   70  A    between atoms: _159  and  _161
REMARK   71  A    between atoms: _161  and  _162
REMARK   72  A    between atoms: _164  and  _166
REMARK   73  A    between atoms: _166  and  _167
REMARK   74  A    between atoms: _169  and  _171
REMARK   75  A    between atoms: _171  and  _172
REMARK   76  A    between atoms: _171  and  _174
REMARK   77  A    between atoms: _174  and  _175
REMARK   78  A    between atoms: _181  and  _183
REMARK   79  A    between atoms: _183  and  _184
REMARK   80  A    between atoms: _183  and  _186
REMARK   81  A    between atoms: _186  and  _187
REMARK   82  A    between atoms: _190  and  _192
REMARK   83  A    between atoms: _192  and  _193
REMARK   84  A    between atoms: _192  and  _195
REMARK   85  A    between atoms: _195  and  _196
REMARK   86  A    between atoms: _196  and  _197
REMARK   87  A    between atoms: _202  and  _204
REMARK   88  A    between atoms: _204  and  _205
REMARK   89  A    between atoms: _204  and  _207
REMARK   90  A    between atoms: _207  and  _208
REMARK   91  A    between atoms: _212  and  _213
REMARK   92  A    between atoms: _218  and  _220
REMARK   93  A    between atoms: _220  and  _221
REMARK   94  A    between atoms: _220  and  _223
REMARK   95  A    between atoms: _223  and  _224
REMARK   96  A    between atoms: _228  and  _229
REMARK   97  A    between atoms: _234  and  _236
REMARK   98  A    between atoms: _236  and  _237
REMARK   99  A    between atoms: _236  and  _239
REMARK  100  A    between atoms: _242  and  _244
REMARK  101  A    between atoms: _244  and  _245
REMARK  102  A    between atoms: _244  and  _247
REMARK  103  A    between atoms: _247  and  _248
REMARK  104  A    between atoms: _253  and  _255
REMARK  105  A    between atoms: _255  and  _256
REMARK  106  A    between atoms: _255  and  _258
REMARK  107  A    between atoms: _258  and  _259
REMARK  108  A    between atoms: _262  and  _264
REMARK  109  A    between atoms: _264  and  _265
REMARK  110  A    between atoms: _264  and  _267
REMARK  111  A    between atoms: _267  and  _268
REMARK  112  A    between atoms: _271  and  _273
REMARK  113  A    between atoms: _273  and  _274
REMARK  114  A    between atoms: _276  and  _278
REMARK  115  A    between atoms: _278  and  _279
REMARK  116  A    between atoms: _278  and  _281
REMARK  117  A    between atoms: _281  and  _282
REMARK  118  A    between atoms: _282  and  _283
REMARK  119  A    between atoms: _283  and  _284
REMARK  120  A    between atoms: _293  and  _295
REMARK  121  A    between atoms: _295  and  _296
REMARK  122  A    between atoms: _295  and  _298
REMARK  123  A    between atoms: _298  and  _299
REMARK  124  A    between atoms: _304  and  _306
REMARK  125  A    between atoms: _306  and  _307
REMARK  126  A    between atoms: _306  and  _309
REMARK  127  A    between atoms: _309  and  _310
REMARK  128  A    between atoms: _310  and  _311
REMARK  129  A    between atoms: _311  and  _312
REMARK  130  A    between atoms: _321  and  _323
REMARK  131  A    between atoms: _323  and  _324
REMARK  132  A    between atoms: _323  and  _326
REMARK  133  A    between atoms: _326  and  _327
REMARK  134  A    between atoms: _330  and  _332
REMARK  135  A    between atoms: _332  and  _333
REMARK  136  A    between atoms: _332  and  _335
REMARK  137  A    between atoms: _335  and  _336
REMARK  138  A    between atoms: _339  and  _341
REMARK  139  A    between atoms: _341  and  _342
REMARK  140  A    between atoms: _341  and  _344
REMARK  141  A    between atoms: _344  and  _345
REMARK  142  A    between atoms: _348  and  _350
REMARK  143  A    between atoms: _350  and  _351
REMARK  144  A    between atoms: _350  and  _353
REMARK  145  A    between atoms: _353  and  _354
REMARK  146  A    between atoms: _357  and  _359
REMARK  147  A    between atoms: _359  and  _360
REMARK  148  A    between atoms: _362  and  _364
REMARK  149  A    between atoms: _364  and  _365
REMARK  150  A    between atoms: _368  and  _370
REMARK  151  A    between atoms: _370  and  _371
REMARK  152  A    between atoms: _370  and  _373
REMARK  153  A    between atoms: _373  and  _374
REMARK  154  A    between atoms: _377  and  _379
REMARK  155  A    between atoms: _379  and  _380
REMARK  156  A    between atoms: _379  and  _382
REMARK  157  A    between atoms: _382  and  _383
REMARK  158  A    between atoms: _386  and  _388
REMARK  159  A    between atoms: _388  and  _389
REMARK  160  A    between atoms: _388  and  _391
REMARK  161  A    between atoms: _391  and  _392
REMARK  162  A    between atoms: _395  and  _397
REMARK  163  A    between atoms: _397  and  _398
REMARK  164  A    between atoms: _397  and  _400
REMARK  165  A    between atoms: _403  and  _405
REMARK  166  A    between atoms: _405  and  _406
REMARK  167  A    between atoms: _405  and  _408
REMARK  168  A    between atoms: _408  and  _409
REMARK  169  A    between atoms: _412  and  _414
REMARK  170  A    between atoms: _414  and  _415
REMARK  171  A    between atoms: _414  and  _417
REMARK  172  A    between atoms: _418  and  _419
REMARK  173  A    between atoms: _419  and  _420
REMARK  174  A    between atoms: _420  and  _421
REMARK  175  A    between atoms: _425  and  _427
REMARK  176  A    between atoms: _427  and  _428
REMARK  177  A    between atoms: _427  and  _430
REMARK  178  A    between atoms: _430  and  _431
REMARK  179  A    between atoms: _431  and  _432
REMARK  180  A    between atoms: _434  and  _436
REMARK  181  A    between atoms: _436  and  _437
REMARK  182  A    between atoms: _436  and  _439
REMARK  183  A    between atoms: _439  and  _440
REMARK  184  A    between atoms: _443  and  _445
REMARK  185  A    between atoms: _445  and  _446
REMARK  186  A    between atoms: _448  and  _450
REMARK  187  A    between atoms: _450  and  _451
REMARK  188  A    between atoms: _453  and  _455
REMARK  189  A    between atoms: _455  and  _456
REMARK  190  A    between atoms: _455  and  _458
REMARK  191  A    between atoms: _458  and  _459
REMARK  192  A    between atoms: _462  and  _464
REMARK  193  A    between atoms: _464  and  _465
REMARK  194  A    between atoms: _467  and  _469
REMARK  195  A    between atoms: _469  and  _470
REMARK  196  A    between atoms: _472  and  _474
REMARK  197  A    between atoms: _474  and  _475
REMARK  198  A    between atoms: _474  and  _477
REMARK  199  A    between atoms: _477  and  _478
REMARK  200  A    between atoms: _484  and  _486
REMARK  201  A    between atoms: _486  and  _487
REMARK  202  A    between atoms: _486  and  _489
REMARK  203  A    between atoms: _489  and  _490
REMARK  204  A    between atoms: _493  and  _495
REMARK  205  A    between atoms: _495  and  _496
REMARK  206  A    between atoms: _495  and  _498
REMARK  207  A    between atoms: _501  and  _503
REMARK  208  A    between atoms: _503  and  _504
REMARK  209  A    between atoms: _503  and  _506
REMARK  210  A    between atoms: _506  and  _507
REMARK  211  A    between atoms: _507  and  _508
REMARK  212  A    between atoms: _513  and  _515
REMARK  213  A    between atoms: _515  and  _516
REMARK  214  A    between atoms: _515  and  _518
REMARK  215  A    between atoms: _518  and  _519
REMARK  216  A    between atoms: _523  and  _524
REMARK  217  A    between atoms: _529  and  _531
REMARK  218  A    between atoms: _531  and  _532
REMARK  219  A    between atoms: _531  and  _534
REMARK  220  A    between atoms: _534  and  _535
REMARK  221  A    between atoms: _539  and  _540
REMARK  222  A    between atoms: _545  and  _547
REMARK  223  A    between atoms: _547  and  _548
REMARK  224  A    between atoms: _547  and  _550
REMARK  225  A    between atoms: _553  and  _555
REMARK  226  A    between atoms: _555  and  _556
REMARK  227  A    between atoms: _555  and  _558
REMARK  228  A    between atoms: _558  and  _559
REMARK  229  A    between atoms: _564  and  _566
REMARK  230  A    between atoms: _566  and  _567
REMARK  231  A    between atoms: _566  and  _569
REMARK  232  A    between atoms: _569  and  _570
REMARK  233  A    between atoms: _573  and  _575
REMARK  234  A    between atoms: _575  and  _576
REMARK  235  A    between atoms: _575  and  _578
REMARK  236  A    between atoms: _578  and  _579
REMARK  237  A    between atoms: _582  and  _584
REMARK  238  A    between atoms: _584  and  _585
REMARK  239  A    between atoms: _587  and  _589
REMARK  240  A    between atoms: _589  and  _590
REMARK  241  A    between atoms: _589  and  _592
REMARK  242  A    between atoms: _592  and  _593
REMARK  243  A    between atoms: _593  and  _594
REMARK  244  A    between atoms: _594  and  _595
REMARK  245  A    between atoms: _604  and  _606
REMARK  246  A    between atoms: _606  and  _607
REMARK  247  A    between atoms: _606  and  _609
REMARK  248  A    between atoms: _609  and  _610
REMARK                            x       y       z     vdW  Elec       q    Type
REMARK                         _______ _______ _______ _____ _____    ______ ____
ROOT
ATOM      1  C   GLY A   5      -4.681  13.284  26.866  0.00  0.00    +0.243 C 
ATOM      2  N   ILE A   6      -5.378  13.494  27.972  0.00  0.00    -0.297 N 
ATOM      3  H   ILE A   6      -6.321  13.930  27.936  0.00  0.00    +0.150 HD
ATOM      4  O   GLY A   5      -3.547  12.853  26.896  0.00  0.00    -0.273 OA
ENDROOT
BRANCH   2   5
ATOM      5  CA  ILE A   6      -4.784  13.096  29.239  0.00  0.00    +0.149 C 
BRANCH   5   6
ATOM      6  C   ILE A   6      -4.835  11.607  29.337  0.00  0.00    +0.241 C 
ATOM      7  N   GLY A   7      -3.692  11.022  29.608  0.00  0.00    -0.295 N 
ATOM      8  H   GLY A   7      -2.797  11.539  29.728  0.00  0.00    +0.150 HD
ATOM      9  O   ILE A   6      -5.884  11.003  29.197  0.00  0.00    -0.273 OA
BRANCH   7  10
ATOM     10  CA  GLY A   7      -3.805   9.581  29.723  0.00  0.00    +0.176 C 
BRANCH  10  11
ATOM     11  C   GLY A   7      -3.359   8.891  28.463  0.00  0.00    +0.243 C 
ATOM     12  O   GLY A   7      -3.090   7.702  28.462  0.00  0.00    -0.273 OA
ATOM     13  N   GLY A   8      -3.230   9.644  27.381  0.00  0.00    -0.295 N 
ATOM     14  H   GLY A   8      -3.558  10.630  27.341  0.00  0.00    +0.150 HD
BRANCH  13  15
ATOM     15  CA  GLY A   8      -2.594   8.983  26.255  0.00  0.00    +0.176 C 
BRANCH  15  16
ATOM     16  C   GLY A   8      -3.105   9.466  24.944  0.00  0.00    +0.243 C 
ATOM     17  O   GLY A   8      -3.453  10.619  24.756  0.00  0.00    -0.273 OA
ATOM     18  N   PHE A   9      -3.107   8.544  24.016  0.00  0.00    -0.297 N 
ATOM     19  H   PHE A   9      -2.904   7.552  24.253  0.00  0.00    +0.150 HD
BRANCH  18  20
ATOM     20  CA  PHE A   9      -3.398   8.936  22.649  0.00  0.00    +0.153 C 
BRANCH  20  21
ATOM     21  C   PHE A   9      -4.357   7.960  22.081  0.00  0.00    +0.241 C 
ATOM     22  O   PHE A   9      -4.307   6.797  22.436  0.00  0.00    -0.273 OA
ATOM     23  N   ILE A  10      -5.216   8.417  21.208  0.00  0.00    -0.298 N 
ATOM     24  H   ILE A  10      -5.269   9.426  20.961  0.00  0.00    +0.150 HD
BRANCH  23  25
ATOM     25  CA  ILE A  10      -6.089   7.430  20.606  0.00  0.00    +0.137 C 
BRANCH  25  26
ATOM     26  C   ILE A  10      -6.078   7.594  19.112  0.00  0.00    +0.227 C 
ATOM     27  O   ILE A  10      -5.833   8.659  18.561  0.00  0.00    -0.286 OA
ENDBRANCH  25  26
BRANCH  25  28
ATOM     28  CB  ILE A  10      -7.515   7.518  21.186  0.00  0.00    +0.026 C 
ATOM     29  CG2 ILE A  10      -7.496   7.096  22.661  0.00  0.00    +0.002 C 
BRANCH  28  30
ATOM     30  CG1 ILE A  10      -8.214   8.879  20.996  0.00  0.00    +0.002 C 
ATOM     31  CD1 ILE A  10      -9.698   8.929  21.384  0.00  0.00    +0.000 C 
ENDBRANCH  28  30
ENDBRANCH  25  28
ENDBRANCH  23  25
ENDBRANCH  20  21
BRANCH  20  32
ATOM     32  CB  PHE A   9      -2.110   8.909  21.818  0.00  0.00    +0.055 C 
BRANCH  32  33
ATOM     33  CG  PHE A   9      -1.434   7.548  21.713  0.00  0.00    -0.020 A 
ATOM     34  CD2 PHE A   9      -0.642   7.045  22.779  0.00  0.00    -0.004 A 
ATOM     35  CE2 PHE A   9       0.021   5.799  22.650  0.00  0.00    -0.000 A 
ATOM     36  CZ  PHE A   9      -0.109   5.057  21.454  0.00  0.00    -0.000 A 
ATOM     37  CE1 PHE A   9      -0.901   5.552  20.393  0.00  0.00    -0.000 A 
ATOM     38  CD1 PHE A   9      -1.561   6.796  20.523  0.00  0.00    -0.004 A 
ENDBRANCH  32  33
ENDBRANCH  20  32
ENDBRANCH  18  20
ENDBRANCH  15  16
ENDBRANCH  13  15
ENDBRANCH  10  11
ENDBRANCH   7  10
ENDBRANCH   5   6
BRANCH   5  39
ATOM     39  CB  ILE A   6      -5.582  13.731  30.367  0.00  0.00    +0.027 C 
ATOM     40  CG2 ILE A   6      -5.692  12.904  31.648  0.00  0.00    +0.002 C 
BRANCH  39  41
ATOM     41  CG1 ILE A   6      -4.914  15.054  30.705  0.00  0.00    +0.002 C 
ATOM     42  CD1 ILE A   6      -5.478  15.720  31.960  0.00  0.00    +0.000 C 
ENDBRANCH  39  41
ENDBRANCH   5  39
ENDBRANCH   2   5
BRANCH   1  43
ATOM     43  CA  GLY A   5      -5.357  13.617  25.575  0.00  0.00    +0.176 C 
BRANCH  43  45
ATOM     44  C   GLY A   4      -4.678  13.499  23.262  0.00  0.00    +0.243 C 
ATOM     45  N   GLY A   5      -4.560  13.069  24.498  0.00  0.00    -0.295 N 
ATOM     46  H   GLY A   5      -3.876  12.315  24.708  0.00  0.00    +0.150 HD
ATOM     47  O   GLY A   4      -5.459  14.361  22.900  0.00  0.00    -0.273 OA
BRANCH  44  48
ATOM     48  CA  GLY A   4      -3.756  12.845  22.276  0.00  0.00    +0.176 C 
BRANCH  48  50
ATOM     49  C   ILE A   3      -4.490  12.040  20.173  0.00  0.00    +0.241 C 
ATOM     50  N   GLY A   4      -4.238  13.086  20.925  0.00  0.00    -0.295 N 
ATOM     51  H   GLY A   4      -4.378  14.053  20.568  0.00  0.00    +0.150 HD
ATOM     52  O   ILE A   3      -4.414  10.886  20.572  0.00  0.00    -0.273 OA
BRANCH  49  53
ATOM     53  CA  ILE A   3      -4.869  12.333  18.751  0.00  0.00    +0.149 C 
BRANCH  53  55
ATOM     54  C   MET A   2      -4.187  11.111  16.815  0.00  0.00    +0.241 C 
ATOM     55  N   ILE A   3      -4.747  11.090  18.003  0.00  0.00    -0.297 N 
ATOM     56  H   ILE A   3      -5.099  10.197  18.404  0.00  0.00    +0.150 HD
ATOM     57  O   MET A   2      -3.817  12.127  16.255  0.00  0.00    -0.273 OA
BRANCH  54  58
ATOM     58  CA  MET A   2      -4.008   9.818  16.106  0.00  0.00    +0.149 C 
BRANCH  58  60
ATOM     59  C   LYS A   1      -5.388   9.621  14.153  0.00  0.00    +0.243 C 
ATOM     60  N   MET A   2      -4.311  10.136  14.712  0.00  0.00    -0.297 N 
ATOM     61  H   MET A   2      -3.684  10.762  14.167  0.00  0.00    +0.150 HD
ATOM     62  O   LYS A   1      -6.093   8.780  14.690  0.00  0.00    -0.273 OA
BRANCH  59  63
ATOM     63  CA  LYS A   1      -5.716  10.103  12.773  0.00  0.00    +0.167 C 
BRANCH  63  64
ATOM     64  N   LYS A   1      -6.511   9.010  12.224  0.00  0.00    -0.234 NA
ATOM     65  H   LYS A   1      -7.204   8.537  12.838  0.00  0.00    +0.142 HD
ENDBRANCH  63  64
BRANCH  63  66
ATOM     66  CB  LYS A   1      -6.581  11.374  12.876  0.00  0.00    -0.005 C 
ATOM     67  CG  LYS A   1      -5.798  12.691  12.978  0.00  0.00    -0.031 C 
BRANCH  67  68
ATOM     68  CD  LYS A   1      -6.618  13.952  13.297  0.00  0.00    +0.002 C 
BRANCH  68  69
ATOM     69  CE  LYS A   1      -5.746  15.218  13.244  0.00  0.00    -0.081 C 
BRANCH  69  70
ATOM     70  NZ  LYS A   1      -6.509  16.422  13.621  0.00  0.00    +0.381 N 
ATOM     71  HZ1 LYS A   1      -6.870  16.313  14.590  0.00  0.00    -0.089 HD
ATOM     72  HZ2 LYS A   1      -5.887  17.254  13.573  0.00  0.00    -0.089 HD
ATOM     73  HZ3 LYS A   1      -7.306  16.545  12.965  0.00  0.00    -0.089 HD
ENDBRANCH  69  70
ENDBRANCH  68  69
ENDBRANCH  67  68
ENDBRANCH  63  66
ENDBRANCH  59  63
ENDBRANCH  58  60
BRANCH  58  74
ATOM     74  CB  MET A   2      -2.537   9.489  16.250  0.00  0.00    +0.041 C 
BRANCH  74  75
ATOM     75  CG  MET A   2      -2.309   8.538  17.400  0.00  0.00    +0.060 C 
BRANCH  75  76
ATOM     76  SD  MET A   2      -2.045   6.886  16.754  0.00  0.00    -0.139 S 
ATOM     77  CE  MET A   2      -0.282   6.781  17.114  0.00  0.00    +0.069 C 
ENDBRANCH  75  76
ENDBRANCH  74  75
ENDBRANCH  58  74
ENDBRANCH  54  58
ENDBRANCH  53  55
BRANCH  53  78
ATOM     78  CB  ILE A   3      -6.301  12.883  18.700  0.00  0.00    +0.027 C 
ATOM     79  CG2 ILE A   3      -6.695  13.402  17.317  0.00  0.00    +0.002 C 
BRANCH  78  80
ATOM     80  CG1 ILE A   3      -7.364  11.913  19.194  0.00  0.00    +0.002 C 
ATOM     81  CD1 ILE A   3      -8.666  12.664  19.415  0.00  0.00    +0.000 C 
ENDBRANCH  78  80
ENDBRANCH  53  78
ENDBRANCH  49  53
ENDBRANCH  48  50
ENDBRANCH  44  48
ENDBRANCH  43  45
ENDBRANCH   1  43
TORSDOF 35
REMARK  Name = ../refined-set-2016/1qbt/1qbt_pocket.pdb
REMARK  248 active torsions:
REMARK  status: ('A' for Active; 'I' for Inactive)
REMARK    1  A    between atoms: _1  and  _3
REMARK    2  A    between atoms: _3  and  _4
REMARK    3  A    between atoms: _3  and  _6
REMARK    4  A    between atoms: _6  and  _7
REMARK    5  A    between atoms: _7  and  _8
REMARK    6  A    between atoms: _8  and  _9
REMARK    7  A    between atoms: _18  and  _20
REMARK    8  A    between atoms: _20  and  _21
REMARK    9  A    between atoms: _20  and  _23
REMARK   10  A    between atoms: _23  and  _24
REMARK   11  A    between atoms: _27  and  _29
REMARK   12  A    between atoms: _29  and  _30
REMARK   13  A    between atoms: _29  and  _32
REMARK   14  A    between atoms: _32  and  _33
REMARK   15  A    between atoms: _36  and  _38
REMARK   16  A    between atoms: _38  and  _39
REMARK   17  A    between atoms: _38  and  _41
REMARK   18  A    between atoms: _41  and  _42
REMARK   19  A    between atoms: _45  and  _47
REMARK   20  A    between atoms: _47  and  _48
REMARK   21  A    between atoms: _47  and  _50
REMARK   22  A    between atoms: _50  and  _51
REMARK   23  A    between atoms: _54  and  _56
REMARK   24  A    between atoms: _56  and  _57
REMARK   25  A    between atoms: _59  and  _61
REMARK   26  A    between atoms: _61  and  _62
REMARK   27  A    between atoms: _65  and  _67
REMARK   28  A    between atoms: _67  and  _68
REMARK   29  A    between atoms: _67  and  _70
REMARK   30  A    between atoms: _70  and  _71
REMARK   31  A    between atoms: _74  and  _76
REMARK   32  A    between atoms: _76  and  _77
REMARK   33  A    between atoms: _76  and  _79
REMARK   34  A    between atoms: _79  and  _80
REMARK   35  A    between atoms: _83  and  _85
REMARK   36  A    between atoms: _85  and  _86
REMARK   37  A    between atoms: _85  and  _88
REMARK   38  A    between atoms: _88  and  _89
REMARK   39  A    between atoms: _92  and  _94
REMARK   40  A    between atoms: _94  and  _95
REMARK   41  A    between atoms: _94  and  _97
REMARK   42  A    between atoms: _100  and  _102
REMARK   43  A    between atoms: _102  and  _103
REMARK   44  A    between atoms: _102  and  _105
REMARK   45  A    between atoms: _105  and  _106
REMARK   46  A    between atoms: _109  and  _111
REMARK   47  A    between atoms: _111  and  _112
REMARK   48  A    between atoms: _111  and  _114
REMARK   49  A    between atoms: _114  and  _115
REMARK   50  A    between atoms: _115  and  _116
REMARK   51  A    between atoms: _116  and  _117
REMARK   52  A    between atoms: _117  and  _118
REMARK   53  A    between atoms: _122  and  _124
REMARK   54  A    between atoms: _124  and  _125
REMARK   55  A    between atoms: _124  and  _127
REMARK   56  A    between atoms: _127  and  _128
REMARK   57  A    between atoms: _128  and  _129
REMARK   58  A    between atoms: _131  and  _133
REMARK   59  A    between atoms: _133  and  _134
REMARK   60  A    between atoms: _133  and  _136
REMARK   61  A    between atoms: _136  and  _137
REMARK   62  A    between atoms: _140  and  _142
REMARK   63  A    between atoms: _142  and  _143
REMARK   64  A    between atoms: _145  and  _147
REMARK   65  A    between atoms: _147  and  _148
REMARK   66  A    between atoms: _150  and  _152
REMARK   67  A    between atoms: _152  and  _153
REMARK   68  A    between atoms: _152  and  _155
REMARK   69  A    between atoms: _155  and  _156
REMARK   70  A    between atoms: _159  and  _161
REMARK   71  A    between atoms: _161  and  _162
REMARK   72  A    between atoms: _164  and  _166
REMARK   73  A    between atoms: _166  and  _167
REMARK   74  A    between atoms: _169  and  _171
REMARK   75  A    between atoms: _171  and  _172
REMARK   76  A    between atoms: _171  and  _174
REMARK   77  A    between atoms: _174  and  _175
REMARK   78  A    between atoms: _181  and  _183
REMARK   79  A    between atoms: _183  and  _184
REMARK   80  A    between atoms: _183  and  _186
REMARK   81  A    between atoms: _186  and  _187
REMARK   82  A    between atoms: _190  and  _192
REMARK   83  A    between atoms: _192  and  _193
REMARK   84  A    between atoms: _192  and  _195
REMARK   85  A    between atoms: _195  and  _196
REMARK   86  A    between atoms: _196  and  _197
REMARK   87  A    between atoms: _202  and  _204
REMARK   88  A    between atoms: _204  and  _205
REMARK   89  A    between atoms: _204  and  _207
REMARK   90  A    between atoms: _207  and  _208
REMARK   91  A    between atoms: _212  and  _213
REMARK   92  A    between atoms: _218  and  _220
REMARK   93  A    between atoms: _220  and  _221
REMARK   94  A    between atoms: _220  and  _223
REMARK   95  A    between atoms: _223  and  _224
REMARK   96  A    between atoms: _228  and  _229
REMARK   97  A    between atoms: _234  and  _236
REMARK   98  A    between atoms: _236  and  _237
REMARK   99  A    between atoms: _236  and  _239
REMARK  100  A    between atoms: _242  and  _244
REMARK  101  A    between atoms: _244  and  _245
REMARK  102  A    between atoms: _244  and  _247
REMARK  103  A    between atoms: _247  and  _248
REMARK  104  A    between atoms: _253  and  _255
REMARK  105  A    between atoms: _255  and  _256
REMARK  106  A    between atoms: _255  and  _258
REMARK  107  A    between atoms: _258  and  _259
REMARK  108  A    between atoms: _262  and  _264
REMARK  109  A    between atoms: _264  and  _265
REMARK  110  A    between atoms: _264  and  _267
REMARK  111  A    between atoms: _267  and  _268
REMARK  112  A    between atoms: _271  and  _273
REMARK  113  A    between atoms: _273  and  _274
REMARK  114  A    between atoms: _276  and  _278
REMARK  115  A    between atoms: _278  and  _279
REMARK  116  A    between atoms: _278  and  _281
REMARK  117  A    between atoms: _281  and  _282
REMARK  118  A    between atoms: _282  and  _283
REMARK  119  A    between atoms: _283  and  _284
REMARK  120  A    between atoms: _293  and  _295
REMARK  121  A    between atoms: _295  and  _296
REMARK  122  A    between atoms: _295  and  _298
REMARK  123  A    between atoms: _298  and  _299
REMARK  124  A    between atoms: _304  and  _306
REMARK  125  A    between atoms: _306  and  _307
REMARK  126  A    between atoms: _306  and  _309
REMARK  127  A    between atoms: _309  and  _310
REMARK  128  A    between atoms: _310  and  _311
REMARK  129  A    between atoms: _311  and  _312
REMARK  130  A    between atoms: _321  and  _323
REMARK  131  A    between atoms: _323  and  _324
REMARK  132  A    between atoms: _323  and  _326
REMARK  133  A    between atoms: _326  and  _327
REMARK  134  A    between atoms: _330  and  _332
REMARK  135  A    between atoms: _332  and  _333
REMARK  136  A    between atoms: _332  and  _335
REMARK  137  A    between atoms: _335  and  _336
REMARK  138  A    between atoms: _339  and  _341
REMARK  139  A    between atoms: _341  and  _342
REMARK  140  A    between atoms: _341  and  _344
REMARK  141  A    between atoms: _344  and  _345
REMARK  142  A    between atoms: _348  and  _350
REMARK  143  A    between atoms: _350  and  _351
REMARK  144  A    between atoms: _350  and  _353
REMARK  145  A    between atoms: _353  and  _354
REMARK  146  A    between atoms: _357  and  _359
REMARK  147  A    between atoms: _359  and  _360
REMARK  148  A    between atoms: _362  and  _364
REMARK  149  A    between atoms: _364  and  _365
REMARK  150  A    between atoms: _368  and  _370
REMARK  151  A    between atoms: _370  and  _371
REMARK  152  A    between atoms: _370  and  _373
REMARK  153  A    between atoms: _373  and  _374
REMARK  154  A    between atoms: _377  and  _379
REMARK  155  A    between atoms: _379  and  _380
REMARK  156  A    between atoms: _379  and  _382
REMARK  157  A    between atoms: _382  and  _383
REMARK  158  A    between atoms: _386  and  _388
REMARK  159  A    between atoms: _388  and  _389
REMARK  160  A    between atoms: _388  and  _391
REMARK  161  A    between atoms: _391  and  _392
REMARK  162  A    between atoms: _395  and  _397
REMARK  163  A    between atoms: _397  and  _398
REMARK  164  A    between atoms: _397  and  _400
REMARK  165  A    between atoms: _403  and  _405
REMARK  166  A    between atoms: _405  and  _406
REMARK  167  A    between atoms: _405  and  _408
REMARK  168  A    between atoms: _408  and  _409
REMARK  169  A    between atoms: _412  and  _414
REMARK  170  A    between atoms: _414  and  _415
REMARK  171  A    between atoms: _414  and  _417
REMARK  172  A    between atoms: _418  and  _419
REMARK  173  A    between atoms: _419  and  _420
REMARK  174  A    between atoms: _420  and  _421
REMARK  175  A    between atoms: _425  and  _427
REMARK  176  A    between atoms: _427  and  _428
REMARK  177  A    between atoms: _427  and  _430
REMARK  178  A    between atoms: _430  and  _431
REMARK  179  A    between atoms: _431  and  _432
REMARK  180  A    between atoms: _434  and  _436
REMARK  181  A    between atoms: _436  and  _437
REMARK  182  A    between atoms: _436  and  _439
REMARK  183  A    between atoms: _439  and  _440
REMARK  184  A    between atoms: _443  and  _445
REMARK  185  A    between atoms: _445  and  _446
REMARK  186  A    between atoms: _448  and  _450
REMARK  187  A    between atoms: _450  and  _451
REMARK  188  A    between atoms: _453  and  _455
REMARK  189  A    between atoms: _455  and  _456
REMARK  190  A    between atoms: _455  and  _458
REMARK  191  A    between atoms: _458  and  _459
REMARK  192  A    between atoms: _462  and  _464
REMARK  193  A    between atoms: _464  and  _465
REMARK  194  A    between atoms: _467  and  _469
REMARK  195  A    between atoms: _469  and  _470
REMARK  196  A    between atoms: _472  and  _474
REMARK  197  A    between atoms: _474  and  _475
REMARK  198  A    between atoms: _474  and  _477
REMARK  199  A    between atoms: _477  and  _478
REMARK  200  A    between atoms: _484  and  _486
REMARK  201  A    between atoms: _486  and  _487
REMARK  202  A    between atoms: _486  and  _489
REMARK  203  A    between atoms: _489  and  _490
REMARK  204  A    between atoms: _493  and  _495
REMARK  205  A    between atoms: _495  and  _496
REMARK  206  A    between atoms: _495  and  _498
REMARK  207  A    between atoms: _501  and  _503
REMARK  208  A    between atoms: _503  and  _504
REMARK  209  A    between atoms: _503  and  _506
REMARK  210  A    between atoms: _506  and  _507
REMARK  211  A    between atoms: _507  and  _508
REMARK  212  A    between atoms: _513  and  _515
REMARK  213  A    between atoms: _515  and  _516
REMARK  214  A    between atoms: _515  and  _518
REMARK  215  A    between atoms: _518  and  _519
REMARK  216  A    between atoms: _523  and  _524
REMARK  217  A    between atoms: _529  and  _531
REMARK  218  A    between atoms: _531  and  _532
REMARK  219  A    between atoms: _531  and  _534
REMARK  220  A    between atoms: _534  and  _535
REMARK  221  A    between atoms: _539  and  _540
REMARK  222  A    between atoms: _545  and  _547
REMARK  223  A    between atoms: _547  and  _548
REMARK  224  A    between atoms: _547  and  _550
REMARK  225  A    between atoms: _553  and  _555
REMARK  226  A    between atoms: _555  and  _556
REMARK  227  A    between atoms: _555  and  _558
REMARK  228  A    between atoms: _558  and  _559
REMARK  229  A    between atoms: _564  and  _566
REMARK  230  A    between atoms: _566  and  _567
REMARK  231  A    between atoms: _566  and  _569
REMARK  232  A    between atoms: _569  and  _570
REMARK  233  A    between atoms: _573  and  _575
REMARK  234  A    between atoms: _575  and  _576
REMARK  235  A    between atoms: _575  and  _578
REMARK  236  A    between atoms: _578  and  _579
REMARK  237  A    between atoms: _582  and  _584
REMARK  238  A    between atoms: _584  and  _585
REMARK  239  A    between atoms: _587  and  _589
REMARK  240  A    between atoms: _589  and  _590
REMARK  241  A    between atoms: _589  and  _592
REMARK  242  A    between atoms: _592  and  _593
REMARK  243  A    between atoms: _593  and  _594
REMARK  244  A    between atoms: _594  and  _595
REMARK  245  A    between atoms: _604  and  _606
REMARK  246  A    between atoms: _606  and  _607
REMARK  247  A    between atoms: _606  and  _609
REMARK  248  A    between atoms: _609  and  _610
REMARK                            x       y       z     vdW  Elec       q    Type
REMARK                         _______ _______ _______ _____ _____    ______ ____
ROOT
ATOM      1  CA  VAL A   1      -9.618   7.818  15.590  0.00  0.00    +0.133 C 
ENDROOT
BRANCH   1   2
ATOM      2  CB  VAL A   1      -9.895   9.219  16.155  0.00  0.00    +0.023 C 
ATOM      3  CG2 VAL A   1     -10.044   9.201  17.676  0.00  0.00    +0.002 C 
ATOM      4  CG1 VAL A   1      -8.841  10.226  15.689  0.00  0.00    +0.002 C 
ENDBRANCH   1   2
BRANCH   1   5
ATOM      5  N   VAL A   1      -8.240   7.417  15.843  0.00  0.00    -0.239 NA
ATOM      6  H   VAL A   1      -7.490   7.857  15.273  0.00  0.00    +0.142 HD
ENDBRANCH   1   5
BRANCH   1   7
ATOM      7  C   VAL A   1      -9.796   7.897  14.105  0.00  0.00    +0.224 C 
ATOM      8  O   VAL A   1      -8.828   7.890  13.355  0.00  0.00    -0.287 OA
ENDBRANCH   1   7
TORSDOF 3
REMARK  Name = ../refined-set-2016/1qbt/1qbt_pocket.pdb
REMARK  248 active torsions:
REMARK  status: ('A' for Active; 'I' for Inactive)
REMARK    1  A    between atoms: _1  and  _3
REMARK    2  A    between atoms: _3  and  _4
REMARK    3  A    between atoms: _3  and  _6
REMARK    4  A    between atoms: _6  and  _7
REMARK    5  A    between atoms: _7  and  _8
REMARK    6  A    between atoms: _8  and  _9
REMARK    7  A    between atoms: _18  and  _20
REMARK    8  A    between atoms: _20  and  _21
REMARK    9  A    between atoms: _20  and  _23
REMARK   10  A    between atoms: _23  and  _24
REMARK   11  A    between atoms: _27  and  _29
REMARK   12  A    between atoms: _29  and  _30
REMARK   13  A    between atoms: _29  and  _32
REMARK   14  A    between atoms: _32  and  _33
REMARK   15  A    between atoms: _36  and  _38
REMARK   16  A    between atoms: _38  and  _39
REMARK   17  A    between atoms: _38  and  _41
REMARK   18  A    between atoms: _41  and  _42
REMARK   19  A    between atoms: _45  and  _47
REMARK   20  A    between atoms: _47  and  _48
REMARK   21  A    between atoms: _47  and  _50
REMARK   22  A    between atoms: _50  and  _51
REMARK   23  A    between atoms: _54  and  _56
REMARK   24  A    between atoms: _56  and  _57
REMARK   25  A    between atoms: _59  and  _61
REMARK   26  A    between atoms: _61  and  _62
REMARK   27  A    between atoms: _65  and  _67
REMARK   28  A    between atoms: _67  and  _68
REMARK   29  A    between atoms: _67  and  _70
REMARK   30  A    between atoms: _70  and  _71
REMARK   31  A    between atoms: _74  and  _76
REMARK   32  A    between atoms: _76  and  _77
REMARK   33  A    between atoms: _76  and  _79
REMARK   34  A    between atoms: _79  and  _80
REMARK   35  A    between atoms: _83  and  _85
REMARK   36  A    between atoms: _85  and  _86
REMARK   37  A    between atoms: _85  and  _88
REMARK   38  A    between atoms: _88  and  _89
REMARK   39  A    between atoms: _92  and  _94
REMARK   40  A    between atoms: _94  and  _95
REMARK   41  A    between atoms: _94  and  _97
REMARK   42  A    between atoms: _100  and  _102
REMARK   43  A    between atoms: _102  and  _103
REMARK   44  A    between atoms: _102  and  _105
REMARK   45  A    between atoms: _105  and  _106
REMARK   46  A    between atoms: _109  and  _111
REMARK   47  A    between atoms: _111  and  _112
REMARK   48  A    between atoms: _111  and  _114
REMARK   49  A    between atoms: _114  and  _115
REMARK   50  A    between atoms: _115  and  _116
REMARK   51  A    between atoms: _116  and  _117
REMARK   52  A    between atoms: _117  and  _118
REMARK   53  A    between atoms: _122  and  _124
REMARK   54  A    between atoms: _124  and  _125
REMARK   55  A    between atoms: _124  and  _127
REMARK   56  A    between atoms: _127  and  _128
REMARK   57  A    between atoms: _128  and  _129
REMARK   58  A    between atoms: _131  and  _133
REMARK   59  A    between atoms: _133  and  _134
REMARK   60  A    between atoms: _133  and  _136
REMARK   61  A    between atoms: _136  and  _137
REMARK   62  A    between atoms: _140  and  _142
REMARK   63  A    between atoms: _142  and  _143
REMARK   64  A    between atoms: _145  and  _147
REMARK   65  A    between atoms: _147  and  _148
REMARK   66  A    between atoms: _150  and  _152
REMARK   67  A    between atoms: _152  and  _153
REMARK   68  A    between atoms: _152  and  _155
REMARK   69  A    between atoms: _155  and  _156
REMARK   70  A    between atoms: _159  and  _161
REMARK   71  A    between atoms: _161  and  _162
REMARK   72  A    between atoms: _164  and  _166
REMARK   73  A    between atoms: _166  and  _167
REMARK   74  A    between atoms: _169  and  _171
REMARK   75  A    between atoms: _171  and  _172
REMARK   76  A    between atoms: _171  and  _174
REMARK   77  A    between atoms: _174  and  _175
REMARK   78  A    between atoms: _181  and  _183
REMARK   79  A    between atoms: _183  and  _184
REMARK   80  A    between atoms: _183  and  _186
REMARK   81  A    between atoms: _186  and  _187
REMARK   82  A    between atoms: _190  and  _192
REMARK   83  A    between atoms: _192  and  _193
REMARK   84  A    between atoms: _192  and  _195
REMARK   85  A    between atoms: _195  and  _196
REMARK   86  A    between atoms: _196  and  _197
REMARK   87  A    between atoms: _202  and  _204
REMARK   88  A    between atoms: _204  and  _205
REMARK   89  A    between atoms: _204  and  _207
REMARK   90  A    between atoms: _207  and  _208
REMARK   91  A    between atoms: _212  and  _213
REMARK   92  A    between atoms: _218  and  _220
REMARK   93  A    between atoms: _220  and  _221
REMARK   94  A    between atoms: _220  and  _223
REMARK   95  A    between atoms: _223  and  _224
REMARK   96  A    between atoms: _228  and  _229
REMARK   97  A    between atoms: _234  and  _236
REMARK   98  A    between atoms: _236  and  _237
REMARK   99  A    between atoms: _236  and  _239
REMARK  100  A    between atoms: _242  and  _244
REMARK  101  A    between atoms: _244  and  _245
REMARK  102  A    between atoms: _244  and  _247
REMARK  103  A    between atoms: _247  and  _248
REMARK  104  A    between atoms: _253  and  _255
REMARK  105  A    between atoms: _255  and  _256
REMARK  106  A    between atoms: _255  and  _258
REMARK  107  A    between atoms: _258  and  _259
REMARK  108  A    between atoms: _262  and  _264
REMARK  109  A    between atoms: _264  and  _265
REMARK  110  A    between atoms: _264  and  _267
REMARK  111  A    between atoms: _267  and  _268
REMARK  112  A    between atoms: _271  and  _273
REMARK  113  A    between atoms: _273  and  _274
REMARK  114  A    between atoms: _276  and  _278
REMARK  115  A    between atoms: _278  and  _279
REMARK  116  A    between atoms: _278  and  _281
REMARK  117  A    between atoms: _281  and  _282
REMARK  118  A    between atoms: _282  and  _283
REMARK  119  A    between atoms: _283  and  _284
REMARK  120  A    between atoms: _293  and  _295
REMARK  121  A    between atoms: _295  and  _296
REMARK  122  A    between atoms: _295  and  _298
REMARK  123  A    between atoms: _298  and  _299
REMARK  124  A    between atoms: _304  and  _306
REMARK  125  A    between atoms: _306  and  _307
REMARK  126  A    between atoms: _306  and  _309
REMARK  127  A    between atoms: _309  and  _310
REMARK  128  A    between atoms: _310  and  _311
REMARK  129  A    between atoms: _311  and  _312
REMARK  130  A    between atoms: _321  and  _323
REMARK  131  A    between atoms: _323  and  _324
REMARK  132  A    between atoms: _323  and  _326
REMARK  133  A    between atoms: _326  and  _327
REMARK  134  A    between atoms: _330  and  _332
REMARK  135  A    between atoms: _332  and  _333
REMARK  136  A    between atoms: _332  and  _335
REMARK  137  A    between atoms: _335  and  _336
REMARK  138  A    between atoms: _339  and  _341
REMARK  139  A    between atoms: _341  and  _342
REMARK  140  A    between atoms: _341  and  _344
REMARK  141  A    between atoms: _344  and  _345
REMARK  142  A    between atoms: _348  and  _350
REMARK  143  A    between atoms: _350  and  _351
REMARK  144  A    between atoms: _350  and  _353
REMARK  145  A    between atoms: _353  and  _354
REMARK  146  A    between atoms: _357  and  _359
REMARK  147  A    between atoms: _359  and  _360
REMARK  148  A    between atoms: _362  and  _364
REMARK  149  A    between atoms: _364  and  _365
REMARK  150  A    between atoms: _368  and  _370
REMARK  151  A    between atoms: _370  and  _371
REMARK  152  A    between atoms: _370  and  _373
REMARK  153  A    between atoms: _373  and  _374
REMARK  154  A    between atoms: _377  and  _379
REMARK  155  A    between atoms: _379  and  _380
REMARK  156  A    between atoms: _379  and  _382
REMARK  157  A    between atoms: _382  and  _383
REMARK  158  A    between atoms: _386  and  _388
REMARK  159  A    between atoms: _388  and  _389
REMARK  160  A    between atoms: _388  and  _391
REMARK  161  A    between atoms: _391  and  _392
REMARK  162  A    between atoms: _395  and  _397
REMARK  163  A    between atoms: _397  and  _398
REMARK  164  A    between atoms: _397  and  _400
REMARK  165  A    between atoms: _403  and  _405
REMARK  166  A    between atoms: _405  and  _406
REMARK  167  A    between atoms: _405  and  _408
REMARK  168  A    between atoms: _408  and  _409
REMARK  169  A    between atoms: _412  and  _414
REMARK  170  A    between atoms: _414  and  _415
REMARK  171  A    between atoms: _414  and  _417
REMARK  172  A    between atoms: _418  and  _419
REMARK  173  A    between atoms: _419  and  _420
REMARK  174  A    between atoms: _420  and  _421
REMARK  175  A    between atoms: _425  and  _427
REMARK  176  A    between atoms: _427  and  _428
REMARK  177  A    between atoms: _427  and  _430
REMARK  178  A    between atoms: _430  and  _431
REMARK  179  A    between atoms: _431  and  _432
REMARK  180  A    between atoms: _434  and  _436
REMARK  181  A    between atoms: _436  and  _437
REMARK  182  A    between atoms: _436  and  _439
REMARK  183  A    between atoms: _439  and  _440
REMARK  184  A    between atoms: _443  and  _445
REMARK  185  A    between atoms: _445  and  _446
REMARK  186  A    between atoms: _448  and  _450
REMARK  187  A    between atoms: _450  and  _451
REMARK  188  A    between atoms: _453  and  _455
REMARK  189  A    between atoms: _455  and  _456
REMARK  190  A    between atoms: _455  and  _458
REMARK  191  A    between atoms: _458  and  _459
REMARK  192  A    between atoms: _462  and  _464
REMARK  193  A    between atoms: _464  and  _465
REMARK  194  A    between atoms: _467  and  _469
REMARK  195  A    between atoms: _469  and  _470
REMARK  196  A    between atoms: _472  and  _474
REMARK  197  A    between atoms: _474  and  _475
REMARK  198  A    between atoms: _474  and  _477
REMARK  199  A    between atoms: _477  and  _478
REMARK  200  A    between atoms: _484  and  _486
REMARK  201  A    between atoms: _486  and  _487
REMARK  202  A    between atoms: _486  and  _489
REMARK  203  A    between atoms: _489  and  _490
REMARK  204  A    between atoms: _493  and  _495
REMARK  205  A    between atoms: _495  and  _496
REMARK  206  A    between atoms: _495  and  _498
REMARK  207  A    between atoms: _501  and  _503
REMARK  208  A    between atoms: _503  and  _504
REMARK  209  A    between atoms: _503  and  _506
REMARK  210  A    between atoms: _506  and  _507
REMARK  211  A    between atoms: _507  and  _508
REMARK  212  A    between atoms: _513  and  _515
REMARK  213  A    between atoms: _515  and  _516
REMARK  214  A    between atoms: _515  and  _518
REMARK  215  A    between atoms: _518  and  _519
REMARK  216  A    between atoms: _523  and  _524
REMARK  217  A    between atoms: _529  and  _531
REMARK  218  A    between atoms: _531  and  _532
REMARK  219  A    between atoms: _531  and  _534
REMARK  220  A    between atoms: _534  and  _535
REMARK  221  A    between atoms: _539  and  _540
REMARK  222  A    between atoms: _545  and  _547
REMARK  223  A    between atoms: _547  and  _548
REMARK  224  A    between atoms: _547  and  _550
REMARK  225  A    between atoms: _553  and  _555
REMARK  226  A    between atoms: _555  and  _556
REMARK  227  A    between atoms: _555  and  _558
REMARK  228  A    between atoms: _558  and  _559
REMARK  229  A    between atoms: _564  and  _566
REMARK  230  A    between atoms: _566  and  _567
REMARK  231  A    between atoms: _566  and  _569
REMARK  232  A    between atoms: _569  and  _570
REMARK  233  A    between atoms: _573  and  _575
REMARK  234  A    between atoms: _575  and  _576
REMARK  235  A    between atoms: _575  and  _578
REMARK  236  A    between atoms: _578  and  _579
REMARK  237  A    between atoms: _582  and  _584
REMARK  238  A    between atoms: _584  and  _585
REMARK  239  A    between atoms: _587  and  _589
REMARK  240  A    between atoms: _589  and  _590
REMARK  241  A    between atoms: _589  and  _592
REMARK  242  A    between atoms: _592  and  _593
REMARK  243  A    between atoms: _593  and  _594
REMARK  244  A    between atoms: _594  and  _595
REMARK  245  A    between atoms: _604  and  _606
REMARK  246  A    between atoms: _606  and  _607
REMARK  247  A    between atoms: _606  and  _609
REMARK  248  A    between atoms: _609  and  _610
REMARK                            x       y       z     vdW  Elec       q    Type
REMARK                         _______ _______ _______ _____ _____    ______ ____
ROOT
ATOM      1  CB  GLN A   1     -10.298  12.098  10.219  0.00  0.00    +0.035 C 
ENDROOT
BRANCH   1   2
ATOM      2  CA  GLN A   1     -11.581  11.442  10.681  0.00  0.00    +0.134 C 
BRANCH   2   3
ATOM      3  N   GLN A   1     -11.296  10.058  10.926  0.00  0.00    -0.239 NA
ATOM      4  H   GLN A   1     -10.685   9.527  10.273  0.00  0.00    +0.142 HD
ENDBRANCH   2   3
BRANCH   2   5
ATOM      5  C   GLN A   1     -12.537  11.494   9.559  0.00  0.00    +0.224 C 
ATOM      6  O   GLN A   1     -12.223  10.987   8.495  0.00  0.00    -0.287 OA
ENDBRANCH   2   5
ENDBRANCH   1   2
BRANCH   1   7
ATOM      7  CG  GLN A   1     -10.548  13.584  10.029  0.00  0.00    +0.087 C 
BRANCH   7   8
ATOM      8  CD  GLN A   1      -9.317  14.292   9.547  0.00  0.00    +0.219 C 
ATOM      9  NE2 GLN A   1      -8.181  13.894  10.085  0.00  0.00    -0.329 N 
ATOM     10 HE21 GLN A   1      -8.179  13.127  10.788  0.00  0.00    +0.145 HD
ATOM     11 HE22 GLN A   1      -7.287  14.347   9.807  0.00  0.00    +0.145 HD
ATOM     12  OE1 GLN A   1      -9.374  15.181   8.724  0.00  0.00    -0.275 OA
ENDBRANCH   7   8
ENDBRANCH   1   7
TORSDOF 5
REMARK  Name = ../refined-set-2016/1qbt/1qbt_pocket.pdb
REMARK  248 active torsions:
REMARK  status: ('A' for Active; 'I' for Inactive)
REMARK    1  A    between atoms: _1  and  _3
REMARK    2  A    between atoms: _3  and  _4
REMARK    3  A    between atoms: _3  and  _6
REMARK    4  A    between atoms: _6  and  _7
REMARK    5  A    between atoms: _7  and  _8
REMARK    6  A    between atoms: _8  and  _9
REMARK    7  A    between atoms: _18  and  _20
REMARK    8  A    between atoms: _20  and  _21
REMARK    9  A    between atoms: _20  and  _23
REMARK   10  A    between atoms: _23  and  _24
REMARK   11  A    between atoms: _27  and  _29
REMARK   12  A    between atoms: _29  and  _30
REMARK   13  A    between atoms: _29  and  _32
REMARK   14  A    between atoms: _32  and  _33
REMARK   15  A    between atoms: _36  and  _38
REMARK   16  A    between atoms: _38  and  _39
REMARK   17  A    between atoms: _38  and  _41
REMARK   18  A    between atoms: _41  and  _42
REMARK   19  A    between atoms: _45  and  _47
REMARK   20  A    between atoms: _47  and  _48
REMARK   21  A    between atoms: _47  and  _50
REMARK   22  A    between atoms: _50  and  _51
REMARK   23  A    between atoms: _54  and  _56
REMARK   24  A    between atoms: _56  and  _57
REMARK   25  A    between atoms: _59  and  _61
REMARK   26  A    between atoms: _61  and  _62
REMARK   27  A    between atoms: _65  and  _67
REMARK   28  A    between atoms: _67  and  _68
REMARK   29  A    between atoms: _67  and  _70
REMARK   30  A    between atoms: _70  and  _71
REMARK   31  A    between atoms: _74  and  _76
REMARK   32  A    between atoms: _76  and  _77
REMARK   33  A    between atoms: _76  and  _79
REMARK   34  A    between atoms: _79  and  _80
REMARK   35  A    between atoms: _83  and  _85
REMARK   36  A    between atoms: _85  and  _86
REMARK   37  A    between atoms: _85  and  _88
REMARK   38  A    between atoms: _88  and  _89
REMARK   39  A    between atoms: _92  and  _94
REMARK   40  A    between atoms: _94  and  _95
REMARK   41  A    between atoms: _94  and  _97
REMARK   42  A    between atoms: _100  and  _102
REMARK   43  A    between atoms: _102  and  _103
REMARK   44  A    between atoms: _102  and  _105
REMARK   45  A    between atoms: _105  and  _106
REMARK   46  A    between atoms: _109  and  _111
REMARK   47  A    between atoms: _111  and  _112
REMARK   48  A    between atoms: _111  and  _114
REMARK   49  A    between atoms: _114  and  _115
REMARK   50  A    between atoms: _115  and  _116
REMARK   51  A    between atoms: _116  and  _117
REMARK   52  A    between atoms: _117  and  _118
REMARK   53  A    between atoms: _122  and  _124
REMARK   54  A    between atoms: _124  and  _125
REMARK   55  A    between atoms: _124  and  _127
REMARK   56  A    between atoms: _127  and  _128
REMARK   57  A    between atoms: _128  and  _129
REMARK   58  A    between atoms: _131  and  _133
REMARK   59  A    between atoms: _133  and  _134
REMARK   60  A    between atoms: _133  and  _136
REMARK   61  A    between atoms: _136  and  _137
REMARK   62  A    between atoms: _140  and  _142
REMARK   63  A    between atoms: _142  and  _143
REMARK   64  A    between atoms: _145  and  _147
REMARK   65  A    between atoms: _147  and  _148
REMARK   66  A    between atoms: _150  and  _152
REMARK   67  A    between atoms: _152  and  _153
REMARK   68  A    between atoms: _152  and  _155
REMARK   69  A    between atoms: _155  and  _156
REMARK   70  A    between atoms: _159  and  _161
REMARK   71  A    between atoms: _161  and  _162
REMARK   72  A    between atoms: _164  and  _166
REMARK   73  A    between atoms: _166  and  _167
REMARK   74  A    between atoms: _169  and  _171
REMARK   75  A    between atoms: _171  and  _172
REMARK   76  A    between atoms: _171  and  _174
REMARK   77  A    between atoms: _174  and  _175
REMARK   78  A    between atoms: _181  and  _183
REMARK   79  A    between atoms: _183  and  _184
REMARK   80  A    between atoms: _183  and  _186
REMARK   81  A    between atoms: _186  and  _187
REMARK   82  A    between atoms: _190  and  _192
REMARK   83  A    between atoms: _192  and  _193
REMARK   84  A    between atoms: _192  and  _195
REMARK   85  A    between atoms: _195  and  _196
REMARK   86  A    between atoms: _196  and  _197
REMARK   87  A    between atoms: _202  and  _204
REMARK   88  A    between atoms: _204  and  _205
REMARK   89  A    between atoms: _204  and  _207
REMARK   90  A    between atoms: _207  and  _208
REMARK   91  A    between atoms: _212  and  _213
REMARK   92  A    between atoms: _218  and  _220
REMARK   93  A    between atoms: _220  and  _221
REMARK   94  A    between atoms: _220  and  _223
REMARK   95  A    between atoms: _223  and  _224
REMARK   96  A    between atoms: _228  and  _229
REMARK   97  A    between atoms: _234  and  _236
REMARK   98  A    between atoms: _236  and  _237
REMARK   99  A    between atoms: _236  and  _239
REMARK  100  A    between atoms: _242  and  _244
REMARK  101  A    between atoms: _244  and  _245
REMARK  102  A    between atoms: _244  and  _247
REMARK  103  A    between atoms: _247  and  _248
REMARK  104  A    between atoms: _253  and  _255
REMARK  105  A    between atoms: _255  and  _256
REMARK  106  A    between atoms: _255  and  _258
REMARK  107  A    between atoms: _258  and  _259
REMARK  108  A    between atoms: _262  and  _264
REMARK  109  A    between atoms: _264  and  _265
REMARK  110  A    between atoms: _264  and  _267
REMARK  111  A    between atoms: _267  and  _268
REMARK  112  A    between atoms: _271  and  _273
REMARK  113  A    between atoms: _273  and  _274
REMARK  114  A    between atoms: _276  and  _278
REMARK  115  A    between atoms: _278  and  _279
REMARK  116  A    between atoms: _278  and  _281
REMARK  117  A    between atoms: _281  and  _282
REMARK  118  A    between atoms: _282  and  _283
REMARK  119  A    between atoms: _283  and  _284
REMARK  120  A    between atoms: _293  and  _295
REMARK  121  A    between atoms: _295  and  _296
REMARK  122  A    between atoms: _295  and  _298
REMARK  123  A    between atoms: _298  and  _299
REMARK  124  A    between atoms: _304  and  _306
REMARK  125  A    between atoms: _306  and  _307
REMARK  126  A    between atoms: _306  and  _309
REMARK  127  A    between atoms: _309  and  _310
REMARK  128  A    between atoms: _310  and  _311
REMARK  129  A    between atoms: _311  and  _312
REMARK  130  A    between atoms: _321  and  _323
REMARK  131  A    between atoms: _323  and  _324
REMARK  132  A    between atoms: _323  and  _326
REMARK  133  A    between atoms: _326  and  _327
REMARK  134  A    between atoms: _330  and  _332
REMARK  135  A    between atoms: _332  and  _333
REMARK  136  A    between atoms: _332  and  _335
REMARK  137  A    between atoms: _335  and  _336
REMARK  138  A    between atoms: _339  and  _341
REMARK  139  A    between atoms: _341  and  _342
REMARK  140  A    between atoms: _341  and  _344
REMARK  141  A    between atoms: _344  and  _345
REMARK  142  A    between atoms: _348  and  _350
REMARK  143  A    between atoms: _350  and  _351
REMARK  144  A    between atoms: _350  and  _353
REMARK  145  A    between atoms: _353  and  _354
REMARK  146  A    between atoms: _357  and  _359
REMARK  147  A    between atoms: _359  and  _360
REMARK  148  A    between atoms: _362  and  _364
REMARK  149  A    between atoms: _364  and  _365
REMARK  150  A    between atoms: _368  and  _370
REMARK  151  A    between atoms: _370  and  _371
REMARK  152  A    between atoms: _370  and  _373
REMARK  153  A    between atoms: _373  and  _374
REMARK  154  A    between atoms: _377  and  _379
REMARK  155  A    between atoms: _379  and  _380
REMARK  156  A    between atoms: _379  and  _382
REMARK  157  A    between atoms: _382  and  _383
REMARK  158  A    between atoms: _386  and  _388
REMARK  159  A    between atoms: _388  and  _389
REMARK  160  A    between atoms: _388  and  _391
REMARK  161  A    between atoms: _391  and  _392
REMARK  162  A    between atoms: _395  and  _397
REMARK  163  A    between atoms: _397  and  _398
REMARK  164  A    between atoms: _397  and  _400
REMARK  165  A    between atoms: _403  and  _405
REMARK  166  A    between atoms: _405  and  _406
REMARK  167  A    between atoms: _405  and  _408
REMARK  168  A    between atoms: _408  and  _409
REMARK  169  A    between atoms: _412  and  _414
REMARK  170  A    between atoms: _414  and  _415
REMARK  171  A    between atoms: _414  and  _417
REMARK  172  A    between atoms: _418  and  _419
REMARK  173  A    between atoms: _419  and  _420
REMARK  174  A    between atoms: _420  and  _421
REMARK  175  A    between atoms: _425  and  _427
REMARK  176  A    between atoms: _427  and  _428
REMARK  177  A    between atoms: _427  and  _430
REMARK  178  A    between atoms: _430  and  _431
REMARK  179  A    between atoms: _431  and  _432
REMARK  180  A    between atoms: _434  and  _436
REMARK  181  A    between atoms: _436  and  _437
REMARK  182  A    between atoms: _436  and  _439
REMARK  183  A    between atoms: _439  and  _440
REMARK  184  A    between atoms: _443  and  _445
REMARK  185  A    between atoms: _445  and  _446
REMARK  186  A    between atoms: _448  and  _450
REMARK  187  A    between atoms: _450  and  _451
REMARK  188  A    between atoms: _453  and  _455
REMARK  189  A    between atoms: _455  and  _456
REMARK  190  A    between atoms: _455  and  _458
REMARK  191  A    between atoms: _458  and  _459
REMARK  192  A    between atoms: _462  and  _464
REMARK  193  A    between atoms: _464  and  _465
REMARK  194  A    between atoms: _467  and  _469
REMARK  195  A    between atoms: _469  and  _470
REMARK  196  A    between atoms: _472  and  _474
REMARK  197  A    between atoms: _474  and  _475
REMARK  198  A    between atoms: _474  and  _477
REMARK  199  A    between atoms: _477  and  _478
REMARK  200  A    between atoms: _484  and  _486
REMARK  201  A    between atoms: _486  and  _487
REMARK  202  A    between atoms: _486  and  _489
REMARK  203  A    between atoms: _489  and  _490
REMARK  204  A    between atoms: _493  and  _495
REMARK  205  A    between atoms: _495  and  _496
REMARK  206  A    between atoms: _495  and  _498
REMARK  207  A    between atoms: _501  and  _503
REMARK  208  A    between atoms: _503  and  _504
REMARK  209  A    between atoms: _503  and  _506
REMARK  210  A    between atoms: _506  and  _507
REMARK  211  A    between atoms: _507  and  _508
REMARK  212  A    between atoms: _513  and  _515
REMARK  213  A    between atoms: _515  and  _516
REMARK  214  A    between atoms: _515  and  _518
REMARK  215  A    between atoms: _518  and  _519
REMARK  216  A    between atoms: _523  and  _524
REMARK  217  A    between atoms: _529  and  _531
REMARK  218  A    between atoms: _531  and  _532
REMARK  219  A    between atoms: _531  and  _534
REMARK  220  A    between atoms: _534  and  _535
REMARK  221  A    between atoms: _539  and  _540
REMARK  222  A    between atoms: _545  and  _547
REMARK  223  A    between atoms: _547  and  _548
REMARK  224  A    between atoms: _547  and  _550
REMARK  225  A    between atoms: _553  and  _555
REMARK  226  A    between atoms: _555  and  _556
REMARK  227  A    between atoms: _555  and  _558
REMARK  228  A    between atoms: _558  and  _559
REMARK  229  A    between atoms: _564  and  _566
REMARK  230  A    between atoms: _566  and  _567
REMARK  231  A    between atoms: _566  and  _569
REMARK  232  A    between atoms: _569  and  _570
REMARK  233  A    between atoms: _573  and  _575
REMARK  234  A    between atoms: _575  and  _576
REMARK  235  A    between atoms: _575  and  _578
REMARK  236  A    between atoms: _578  and  _579
REMARK  237  A    between atoms: _582  and  _584
REMARK  238  A    between atoms: _584  and  _585
REMARK  239  A    between atoms: _587  and  _589
REMARK  240  A    between atoms: _589  and  _590
REMARK  241  A    between atoms: _589  and  _592
REMARK  242  A    between atoms: _592  and  _593
REMARK  243  A    between atoms: _593  and  _594
REMARK  244  A    between atoms: _594  and  _595
REMARK  245  A    between atoms: _604  and  _606
REMARK  246  A    between atoms: _606  and  _607
REMARK  247  A    between atoms: _606  and  _609
REMARK  248  A    between atoms: _609  and  _610
REMARK                            x       y       z     vdW  Elec       q    Type
REMARK                         _______ _______ _______ _____ _____    ______ ____
ROOT
ATOM      1  CA  LEU A   1     -13.214  12.512  14.690  0.00  0.00    +0.133 C 
ENDROOT
BRANCH   1   2
ATOM      2  N   LEU A   1     -13.995  13.727  14.492  0.00  0.00    -0.239 NA
ATOM      3  H   LEU A   1     -14.119  14.403  15.272  0.00  0.00    +0.142 HD
ENDBRANCH   1   2
BRANCH   1   4
ATOM      4  C   LEU A   1     -14.061  11.594  15.481  0.00  0.00    +0.224 C 
ATOM      5  O   LEU A   1     -14.658  12.020  16.453  0.00  0.00    -0.287 OA
ENDBRANCH   1   4
BRANCH   1   6
ATOM      6  CB  LEU A   1     -12.007  12.752  15.578  0.00  0.00    +0.025 C 
BRANCH   6   7
ATOM      7  CG  LEU A   1     -11.055  13.792  15.036  0.00  0.00    +0.002 C 
ATOM      8  CD2 LEU A   1      -9.952  14.026  16.041  0.00  0.00    +0.000 C 
ATOM      9  CD1 LEU A   1     -10.516  13.401  13.678  0.00  0.00    +0.000 C 
ENDBRANCH   6   7
ENDBRANCH   1   6
TORSDOF 4
REMARK  Name = ../refined-set-2016/1qbt/1qbt_pocket.pdb
REMARK  248 active torsions:
REMARK  status: ('A' for Active; 'I' for Inactive)
REMARK    1  A    between atoms: _1  and  _3
REMARK    2  A    between atoms: _3  and  _4
REMARK    3  A    between atoms: _3  and  _6
REMARK    4  A    between atoms: _6  and  _7
REMARK    5  A    between atoms: _7  and  _8
REMARK    6  A    between atoms: _8  and  _9
REMARK    7  A    between atoms: _18  and  _20
REMARK    8  A    between atoms: _20  and  _21
REMARK    9  A    between atoms: _20  and  _23
REMARK   10  A    between atoms: _23  and  _24
REMARK   11  A    between atoms: _27  and  _29
REMARK   12  A    between atoms: _29  and  _30
REMARK   13  A    between atoms: _29  and  _32
REMARK   14  A    between atoms: _32  and  _33
REMARK   15  A    between atoms: _36  and  _38
REMARK   16  A    between atoms: _38  and  _39
REMARK   17  A    between atoms: _38  and  _41
REMARK   18  A    between atoms: _41  and  _42
REMARK   19  A    between atoms: _45  and  _47
REMARK   20  A    between atoms: _47  and  _48
REMARK   21  A    between atoms: _47  and  _50
REMARK   22  A    between atoms: _50  and  _51
REMARK   23  A    between atoms: _54  and  _56
REMARK   24  A    between atoms: _56  and  _57
REMARK   25  A    between atoms: _59  and  _61
REMARK   26  A    between atoms: _61  and  _62
REMARK   27  A    between atoms: _65  and  _67
REMARK   28  A    between atoms: _67  and  _68
REMARK   29  A    between atoms: _67  and  _70
REMARK   30  A    between atoms: _70  and  _71
REMARK   31  A    between atoms: _74  and  _76
REMARK   32  A    between atoms: _76  and  _77
REMARK   33  A    between atoms: _76  and  _79
REMARK   34  A    between atoms: _79  and  _80
REMARK   35  A    between atoms: _83  and  _85
REMARK   36  A    between atoms: _85  and  _86
REMARK   37  A    between atoms: _85  and  _88
REMARK   38  A    between atoms: _88  and  _89
REMARK   39  A    between atoms: _92  and  _94
REMARK   40  A    between atoms: _94  and  _95
REMARK   41  A    between atoms: _94  and  _97
REMARK   42  A    between atoms: _100  and  _102
REMARK   43  A    between atoms: _102  and  _103
REMARK   44  A    between atoms: _102  and  _105
REMARK   45  A    between atoms: _105  and  _106
REMARK   46  A    between atoms: _109  and  _111
REMARK   47  A    between atoms: _111  and  _112
REMARK   48  A    between atoms: _111  and  _114
REMARK   49  A    between atoms: _114  and  _115
REMARK   50  A    between atoms: _115  and  _116
REMARK   51  A    between atoms: _116  and  _117
REMARK   52  A    between atoms: _117  and  _118
REMARK   53  A    between atoms: _122  and  _124
REMARK   54  A    between atoms: _124  and  _125
REMARK   55  A    between atoms: _124  and  _127
REMARK   56  A    between atoms: _127  and  _128
REMARK   57  A    between atoms: _128  and  _129
REMARK   58  A    between atoms: _131  and  _133
REMARK   59  A    between atoms: _133  and  _134
REMARK   60  A    between atoms: _133  and  _136
REMARK   61  A    between atoms: _136  and  _137
REMARK   62  A    between atoms: _140  and  _142
REMARK   63  A    between atoms: _142  and  _143
REMARK   64  A    between atoms: _145  and  _147
REMARK   65  A    between atoms: _147  and  _148
REMARK   66  A    between atoms: _150  and  _152
REMARK   67  A    between atoms: _152  and  _153
REMARK   68  A    between atoms: _152  and  _155
REMARK   69  A    between atoms: _155  and  _156
REMARK   70  A    between atoms: _159  and  _161
REMARK   71  A    between atoms: _161  and  _162
REMARK   72  A    between atoms: _164  and  _166
REMARK   73  A    between atoms: _166  and  _167
REMARK   74  A    between atoms: _169  and  _171
REMARK   75  A    between atoms: _171  and  _172
REMARK   76  A    between atoms: _171  and  _174
REMARK   77  A    between atoms: _174  and  _175
REMARK   78  A    between atoms: _181  and  _183
REMARK   79  A    between atoms: _183  and  _184
REMARK   80  A    between atoms: _183  and  _186
REMARK   81  A    between atoms: _186  and  _187
REMARK   82  A    between atoms: _190  and  _192
REMARK   83  A    between atoms: _192  and  _193
REMARK   84  A    between atoms: _192  and  _195
REMARK   85  A    between atoms: _195  and  _196
REMARK   86  A    between atoms: _196  and  _197
REMARK   87  A    between atoms: _202  and  _204
REMARK   88  A    between atoms: _204  and  _205
REMARK   89  A    between atoms: _204  and  _207
REMARK   90  A    between atoms: _207  and  _208
REMARK   91  A    between atoms: _212  and  _213
REMARK   92  A    between atoms: _218  and  _220
REMARK   93  A    between atoms: _220  and  _221
REMARK   94  A    between atoms: _220  and  _223
REMARK   95  A    between atoms: _223  and  _224
REMARK   96  A    between atoms: _228  and  _229
REMARK   97  A    between atoms: _234  and  _236
REMARK   98  A    between atoms: _236  and  _237
REMARK   99  A    between atoms: _236  and  _239
REMARK  100  A    between atoms: _242  and  _244
REMARK  101  A    between atoms: _244  and  _245
REMARK  102  A    between atoms: _244  and  _247
REMARK  103  A    between atoms: _247  and  _248
REMARK  104  A    between atoms: _253  and  _255
REMARK  105  A    between atoms: _255  and  _256
REMARK  106  A    between atoms: _255  and  _258
REMARK  107  A    between atoms: _258  and  _259
REMARK  108  A    between atoms: _262  and  _264
REMARK  109  A    between atoms: _264  and  _265
REMARK  110  A    between atoms: _264  and  _267
REMARK  111  A    between atoms: _267  and  _268
REMARK  112  A    between atoms: _271  and  _273
REMARK  113  A    between atoms: _273  and  _274
REMARK  114  A    between atoms: _276  and  _278
REMARK  115  A    between atoms: _278  and  _279
REMARK  116  A    between atoms: _278  and  _281
REMARK  117  A    between atoms: _281  and  _282
REMARK  118  A    between atoms: _282  and  _283
REMARK  119  A    between atoms: _283  and  _284
REMARK  120  A    between atoms: _293  and  _295
REMARK  121  A    between atoms: _295  and  _296
REMARK  122  A    between atoms: _295  and  _298
REMARK  123  A    between atoms: _298  and  _299
REMARK  124  A    between atoms: _304  and  _306
REMARK  125  A    between atoms: _306  and  _307
REMARK  126  A    between atoms: _306  and  _309
REMARK  127  A    between atoms: _309  and  _310
REMARK  128  A    between atoms: _310  and  _311
REMARK  129  A    between atoms: _311  and  _312
REMARK  130  A    between atoms: _321  and  _323
REMARK  131  A    between atoms: _323  and  _324
REMARK  132  A    between atoms: _323  and  _326
REMARK  133  A    between atoms: _326  and  _327
REMARK  134  A    between atoms: _330  and  _332
REMARK  135  A    between atoms: _332  and  _333
REMARK  136  A    between atoms: _332  and  _335
REMARK  137  A    between atoms: _335  and  _336
REMARK  138  A    between atoms: _339  and  _341
REMARK  139  A    between atoms: _341  and  _342
REMARK  140  A    between atoms: _341  and  _344
REMARK  141  A    between atoms: _344  and  _345
REMARK  142  A    between atoms: _348  and  _350
REMARK  143  A    between atoms: _350  and  _351
REMARK  144  A    between atoms: _350  and  _353
REMARK  145  A    between atoms: _353  and  _354
REMARK  146  A    between atoms: _357  and  _359
REMARK  147  A    between atoms: _359  and  _360
REMARK  148  A    between atoms: _362  and  _364
REMARK  149  A    between atoms: _364  and  _365
REMARK  150  A    between atoms: _368  and  _370
REMARK  151  A    between atoms: _370  and  _371
REMARK  152  A    between atoms: _370  and  _373
REMARK  153  A    between atoms: _373  and  _374
REMARK  154  A    between atoms: _377  and  _379
REMARK  155  A    between atoms: _379  and  _380
REMARK  156  A    between atoms: _379  and  _382
REMARK  157  A    between atoms: _382  and  _383
REMARK  158  A    between atoms: _386  and  _388
REMARK  159  A    between atoms: _388  and  _389
REMARK  160  A    between atoms: _388  and  _391
REMARK  161  A    between atoms: _391  and  _392
REMARK  162  A    between atoms: _395  and  _397
REMARK  163  A    between atoms: _397  and  _398
REMARK  164  A    between atoms: _397  and  _400
REMARK  165  A    between atoms: _403  and  _405
REMARK  166  A    between atoms: _405  and  _406
REMARK  167  A    between atoms: _405  and  _408
REMARK  168  A    between atoms: _408  and  _409
REMARK  169  A    between atoms: _412  and  _414
REMARK  170  A    between atoms: _414  and  _415
REMARK  171  A    between atoms: _414  and  _417
REMARK  172  A    between atoms: _418  and  _419
REMARK  173  A    between atoms: _419  and  _420
REMARK  174  A    between atoms: _420  and  _421
REMARK  175  A    between atoms: _425  and  _427
REMARK  176  A    between atoms: _427  and  _428
REMARK  177  A    between atoms: _427  and  _430
REMARK  178  A    between atoms: _430  and  _431
REMARK  179  A    between atoms: _431  and  _432
REMARK  180  A    between atoms: _434  and  _436
REMARK  181  A    between atoms: _436  and  _437
REMARK  182  A    between atoms: _436  and  _439
REMARK  183  A    between atoms: _439  and  _440
REMARK  184  A    between atoms: _443  and  _445
REMARK  185  A    between atoms: _445  and  _446
REMARK  186  A    between atoms: _448  and  _450
REMARK  187  A    between atoms: _450  and  _451
REMARK  188  A    between atoms: _453  and  _455
REMARK  189  A    between atoms: _455  and  _456
REMARK  190  A    between atoms: _455  and  _458
REMARK  191  A    between atoms: _458  and  _459
REMARK  192  A    between atoms: _462  and  _464
REMARK  193  A    between atoms: _464  and  _465
REMARK  194  A    between atoms: _467  and  _469
REMARK  195  A    between atoms: _469  and  _470
REMARK  196  A    between atoms: _472  and  _474
REMARK  197  A    between atoms: _474  and  _475
REMARK  198  A    between atoms: _474  and  _477
REMARK  199  A    between atoms: _477  and  _478
REMARK  200  A    between atoms: _484  and  _486
REMARK  201  A    between atoms: _486  and  _487
REMARK  202  A    between atoms: _486  and  _489
REMARK  203  A    between atoms: _489  and  _490
REMARK  204  A    between atoms: _493  and  _495
REMARK  205  A    between atoms: _495  and  _496
REMARK  206  A    between atoms: _495  and  _498
REMARK  207  A    between atoms: _501  and  _503
REMARK  208  A    between atoms: _503  and  _504
REMARK  209  A    between atoms: _503  and  _506
REMARK  210  A    between atoms: _506  and  _507
REMARK  211  A    between atoms: _507  and  _508
REMARK  212  A    between atoms: _513  and  _515
REMARK  213  A    between atoms: _515  and  _516
REMARK  214  A    between atoms: _515  and  _518
REMARK  215  A    between atoms: _518  and  _519
REMARK  216  A    between atoms: _523  and  _524
REMARK  217  A    between atoms: _529  and  _531
REMARK  218  A    between atoms: _531  and  _532
REMARK  219  A    between atoms: _531  and  _534
REMARK  220  A    between atoms: _534  and  _535
REMARK  221  A    between atoms: _539  and  _540
REMARK  222  A    between atoms: _545  and  _547
REMARK  223  A    between atoms: _547  and  _548
REMARK  224  A    between atoms: _547  and  _550
REMARK  225  A    between atoms: _553  and  _555
REMARK  226  A    between atoms: _555  and  _556
REMARK  227  A    between atoms: _555  and  _558
REMARK  228  A    between atoms: _558  and  _559
REMARK  229  A    between atoms: _564  and  _566
REMARK  230  A    between atoms: _566  and  _567
REMARK  231  A    between atoms: _566  and  _569
REMARK  232  A    between atoms: _569  and  _570
REMARK  233  A    between atoms: _573  and  _575
REMARK  234  A    between atoms: _575  and  _576
REMARK  235  A    between atoms: _575  and  _578
REMARK  236  A    between atoms: _578  and  _579
REMARK  237  A    between atoms: _582  and  _584
REMARK  238  A    between atoms: _584  and  _585
REMARK  239  A    between atoms: _587  and  _589
REMARK  240  A    between atoms: _589  and  _590
REMARK  241  A    between atoms: _589  and  _592
REMARK  242  A    between atoms: _592  and  _593
REMARK  243  A    between atoms: _593  and  _594
REMARK  244  A    between atoms: _594  and  _595
REMARK  245  A    between atoms: _604  and  _606
REMARK  246  A    between atoms: _606  and  _607
REMARK  247  A    between atoms: _606  and  _609
REMARK  248  A    between atoms: _609  and  _610
REMARK                            x       y       z     vdW  Elec       q    Type
REMARK                         _______ _______ _______ _____ _____    ______ ____
ROOT
ATOM      1  CA  ILE A   6     -16.634  16.275  22.842  0.00  0.00    +0.149 C 
ENDROOT
BRANCH   1   2
ATOM      2  C   ILE A   6     -16.711  17.154  21.631  0.00  0.00    +0.241 C 
ATOM      3  N   ILE A   7     -17.361  18.296  21.818  0.00  0.00    -0.297 N 
ATOM      4  H   ILE A   7     -17.898  18.457  22.694  0.00  0.00    +0.150 HD
ATOM      5  O   ILE A   6     -16.218  16.811  20.563  0.00  0.00    -0.273 OA
BRANCH   3   6
ATOM      6  CA  ILE A   7     -17.316  19.327  20.781  0.00  0.00    +0.149 C 
BRANCH   6   7
ATOM      7  C   ILE A   7     -16.144  20.214  21.147  0.00  0.00    +0.241 C 
ATOM      8  O   ILE A   7     -16.051  20.697  22.264  0.00  0.00    -0.273 OA
ATOM      9  N   GLY A   8     -15.233  20.347  20.209  0.00  0.00    -0.295 N 
ATOM     10  H   GLY A   8     -15.382  19.930  19.268  0.00  0.00    +0.150 HD
BRANCH   9  11
ATOM     11  CA  GLY A   8     -14.020  21.081  20.501  0.00  0.00    +0.176 C 
BRANCH  11  12
ATOM     12  C   GLY A   8     -14.022  22.390  19.757  0.00  0.00    +0.243 C 
ATOM     13  N   ARG A   9     -12.880  23.028  19.782  0.00  0.00    -0.297 N 
ATOM     14  H   ARG A   9     -12.022  22.554  20.129  0.00  0.00    +0.150 HD
ATOM     15  O   GLY A   8     -14.999  22.830  19.162  0.00  0.00    -0.273 OA
BRANCH  13  16
ATOM     16  CA  ARG A   9     -12.820  24.395  19.324  0.00  0.00    +0.149 C 
BRANCH  16  17
ATOM     17  C   ARG A   9     -13.069  24.586  17.861  0.00  0.00    +0.241 C 
ATOM     18  O   ARG A   9     -13.518  25.634  17.420  0.00  0.00    -0.273 OA
ATOM     19  N   ASN A  10     -12.844  23.524  17.109  0.00  0.00    -0.298 N 
ATOM     20  H   ASN A  10     -12.438  22.653  17.507  0.00  0.00    +0.150 HD
BRANCH  19  21
ATOM     21  CA  ASN A  10     -13.190  23.628  15.695  0.00  0.00    +0.146 C 
BRANCH  21  22
ATOM     22  C   ASN A  10     -14.661  23.839  15.399  0.00  0.00    +0.227 C 
ATOM     23  O   ASN A  10     -15.017  24.580  14.496  0.00  0.00    -0.286 OA
ENDBRANCH  21  22
BRANCH  21  24
ATOM     24  CB  ASN A  10     -12.620  22.456  14.895  0.00  0.00    +0.112 C 
BRANCH  24  25
ATOM     25  CG  ASN A  10     -13.299  21.159  15.213  0.00  0.00    +0.222 C 
ATOM     26  OD1 ASN A  10     -13.659  20.876  16.339  0.00  0.00    -0.275 OA
ATOM     27  ND2 ASN A  10     -13.498  20.367  14.176  0.00  0.00    -0.329 N 
ATOM     28 HD21 ASN A  10     -13.982  19.455  14.303  0.00  0.00    +0.145 HD
ATOM     29 HD22 ASN A  10     -13.171  20.655  13.232  0.00  0.00    +0.145 HD
ENDBRANCH  24  25
ENDBRANCH  21  24
ENDBRANCH  19  21
ENDBRANCH  16  17
BRANCH  16  30
ATOM     30  CB  ARG A   9     -11.490  24.996  19.720  0.00  0.00    +0.033 C 
BRANCH  30  31
ATOM     31  CG  ARG A   9     -11.328  25.324  21.208  0.00  0.00    +0.045 C 
BRANCH  31  32
ATOM     32  CD  ARG A   9     -10.023  26.106  21.374  0.00  0.00    +0.174 C 
BRANCH  32  33
ATOM     33  NE  ARG A   9      -8.875  25.387  20.813  0.00  0.00    -0.265 N 
ATOM     34  HE  ARG A   9      -8.603  24.478  21.238  0.00  0.00    +0.259 HD
ATOM     35  CZ  ARG A   9      -8.154  25.851  19.770  0.00  0.00    +0.342 C 
ATOM     36  NH2 ARG A   9      -7.087  25.184  19.348  0.00  0.00    -0.292 N 
ATOM     37 HH21 ARG A   9      -6.805  24.302  19.821  0.00  0.00    +0.255 HD
ATOM     38 HH22 ARG A   9      -6.533  25.543  18.544  0.00  0.00    +0.255 HD
ATOM     39  NH1 ARG A   9      -8.451  26.969  19.126  0.00  0.00    -0.292 N 
ATOM     40 HH11 ARG A   9      -9.274  27.534  19.418  0.00  0.00    +0.255 HD
ATOM     41 HH12 ARG A   9      -7.862  27.282  18.328  0.00  0.00    +0.255 HD
ENDBRANCH  32  33
ENDBRANCH  31  32
ENDBRANCH  30  31
ENDBRANCH  16  30
ENDBRANCH  13  16
ENDBRANCH  11  12
ENDBRANCH   9  11
ENDBRANCH   6   7
BRANCH   6  42
ATOM     42  CB  ILE A   7     -18.622  20.137  20.809  0.00  0.00    +0.027 C 
ATOM     43  CG2 ILE A   7     -18.654  21.202  19.740  0.00  0.00    +0.002 C 
BRANCH  42  44
ATOM     44  CG1 ILE A   7     -19.881  19.287  20.658  0.00  0.00    +0.002 C 
ATOM     45  CD1 ILE A   7     -19.999  18.581  19.302  0.00  0.00    +0.000 C 
ENDBRANCH  42  44
ENDBRANCH   6  42
ENDBRANCH   3   6
ENDBRANCH   1   2
BRANCH   1  48
ATOM     46  C   ASN A   5     -18.131  14.415  23.227  0.00  0.00    +0.241 C 
ATOM     47  O   ASN A   5     -18.646  14.949  24.194  0.00  0.00    -0.273 OA
ATOM     48  N   ILE A   6     -17.225  14.991  22.477  0.00  0.00    -0.297 N 
ATOM     49  H   ILE A   6     -16.919  14.522  21.600  0.00  0.00    +0.150 HD
BRANCH  46  50
ATOM     50  CA  ASN A   5     -18.524  13.026  22.859  0.00  0.00    +0.158 C 
BRANCH  50  52
ATOM     51  C   VAL A   4     -17.501  11.837  24.605  0.00  0.00    +0.241 C 
ATOM     52  N   ASN A   5     -18.612  12.303  24.118  0.00  0.00    -0.297 N 
ATOM     53  H   ASN A   5     -19.521  12.166  24.605  0.00  0.00    +0.150 HD
ATOM     54  O   VAL A   4     -16.442  11.905  24.018  0.00  0.00    -0.273 OA
BRANCH  51  55
ATOM     55  CA  VAL A   4     -17.594  11.198  25.945  0.00  0.00    +0.149 C 
BRANCH  55  58
ATOM     56  C   PRO A   3     -16.707   9.060  26.601  0.00  0.00    +0.241 C 
ATOM     57  O   PRO A   3     -17.786   8.778  27.104  0.00  0.00    -0.273 OA
ATOM     58  N   VAL A   4     -16.479  10.253  26.053  0.00  0.00    -0.297 N 
ATOM     59  H   VAL A   4     -15.531  10.508  25.710  0.00  0.00    +0.150 HD
BRANCH  56  62
ATOM     60  C   THR A   2     -14.544   8.099  24.420  0.00  0.00    +0.246 C 
ATOM     61  N   PRO A   3     -14.443   8.392  25.718  0.00  0.00    -0.272 N 
ATOM     62  CA  PRO A   3     -15.560   8.050  26.594  0.00  0.00    +0.152 C 
ATOM     63  CB  PRO A   3     -14.838   7.939  27.938  0.00  0.00    +0.031 C 
ATOM     64  CG  PRO A   3     -13.699   8.945  27.895  0.00  0.00    +0.024 C 
ATOM     65  CD  PRO A   3     -13.280   8.931  26.432  0.00  0.00    +0.094 C 
ATOM     66  O   THR A   2     -15.462   7.448  23.941  0.00  0.00    -0.273 OA
BRANCH  60  67
ATOM     67  CA  THR A   2     -13.423   8.590  23.531  0.00  0.00    +0.176 C 
BRANCH  67  70
ATOM     68  C   PRO A   1     -12.635   6.553  22.562  0.00  0.00    +0.239 C 
ATOM     69  O   PRO A   1     -11.886   6.398  23.511  0.00  0.00    -0.274 OA
ATOM     70  N   THR A   2     -13.372   7.641  22.430  0.00  0.00    -0.295 N 
ATOM     71  H   THR A   2     -13.906   7.816  21.555  0.00  0.00    +0.150 HD
BRANCH  68  73
ATOM     72  N   PRO A   1     -12.620   5.961  20.075  0.00  0.00    -0.210 NA
ATOM     73  CA  PRO A   1     -12.768   5.498  21.462  0.00  0.00    +0.149 C 
ATOM     74  CB  PRO A   1     -11.658   4.455  21.518  0.00  0.00    +0.028 C 
ATOM     75  CG  PRO A   1     -10.568   5.009  20.607  0.00  0.00    +0.021 C 
ATOM     76  CD  PRO A   1     -11.382   5.528  19.443  0.00  0.00    +0.089 C 
ENDBRANCH  68  73
ENDBRANCH  67  70
BRANCH  67  77
ATOM     77  CB  THR A   2     -13.707   9.972  22.937  0.00  0.00    +0.137 C 
ATOM     78  CG2 THR A   2     -14.866   9.927  21.972  0.00  0.00    +0.034 C 
BRANCH  77  79
ATOM     79  OG1 THR A   2     -13.975  10.929  23.964  0.00  0.00    -0.382 OA
ATOM     80  HG1 THR A   2     -14.765  10.639  24.485  0.00  0.00    +0.210 HD
ENDBRANCH  77  79
ENDBRANCH  67  77
ENDBRANCH  60  67
ENDBRANCH  56  62
ENDBRANCH  55  58
BRANCH  55  81
ATOM     81  CB  VAL A   4     -17.562  12.323  26.994  0.00  0.00    +0.027 C 
ATOM     82  CG2 VAL A   4     -18.326  11.936  28.237  0.00  0.00    +0.002 C 
ATOM     83  CG1 VAL A   4     -16.158  12.779  27.324  0.00  0.00    +0.002 C 
ENDBRANCH  55  81
ENDBRANCH  51  55
ENDBRANCH  50  52
BRANCH  50  84
ATOM     84  CB  ASN A   5     -19.902  13.157  22.223  0.00  0.00    +0.114 C 
BRANCH  84  85
ATOM     85  CG  ASN A   5     -20.505  11.819  21.917  0.00  0.00    +0.222 C 
ATOM     86  ND2 ASN A   5     -21.714  11.646  22.406  0.00  0.00    -0.329 N 
ATOM     87 HD21 ASN A   5     -22.173  12.411  22.941  0.00  0.00    +0.145 HD
ATOM     88 HD22 ASN A   5     -22.211  10.744  22.258  0.00  0.00    +0.145 HD
ATOM     89  OD1 ASN A   5     -19.919  10.959  21.283  0.00  0.00    -0.275 OA
ENDBRANCH  84  85
ENDBRANCH  50  84
ENDBRANCH  46  50
ENDBRANCH   1  48
BRANCH   1  90
ATOM     90  CB  ILE A   6     -15.170  16.008  23.272  0.00  0.00    +0.027 C 
ATOM     91  CG2 ILE A   6     -14.260  17.231  23.248  0.00  0.00    +0.002 C 
BRANCH  90  92
ATOM     92  CG1 ILE A   6     -15.079  15.377  24.662  0.00  0.00    +0.002 C 
ATOM     93  CD1 ILE A   6     -13.789  14.608  24.917  0.00  0.00    +0.000 C 
ENDBRANCH  90  92
ENDBRANCH   1  90
TORSDOF 33
