REMARK  Name = ../refined-set-2016/4xmb/4xmb_pocket.pdb
REMARK  246 active torsions:
REMARK  status: ('A' for Active; 'I' for Inactive)
REMARK    1  A    between atoms: _1  and  _3
REMARK    2  A    between atoms: _3  and  _4
REMARK    3  A    between atoms: _6  and  _8
REMARK    4  A    between atoms: _8  and  _9
REMARK    5  A    between atoms: _8  and  _11
REMARK    6  A    between atoms: _11  and  _12
REMARK    7  A    between atoms: _17  and  _18
REMARK    8  A    between atoms: _20  and  _22
REMARK    9  A    between atoms: _22  and  _23
REMARK   10  A    between atoms: _22  and  _25
REMARK   11  A    between atoms: _25  and  _26
REMARK   12  A    between atoms: _32  and  _34
REMARK   13  A    between atoms: _34  and  _35
REMARK   14  A    between atoms: _34  and  _37
REMARK   15  A    between atoms: _37  and  _38
REMARK   16  A    between atoms: _38  and  _39
REMARK   17  A    between atoms: _39  and  _40
REMARK   18  A    between atoms: _49  and  _51
REMARK   19  A    between atoms: _51  and  _52
REMARK   20  A    between atoms: _51  and  _54
REMARK   21  A    between atoms: _54  and  _55
REMARK   22  A    between atoms: _55  and  _56
REMARK   23  A    between atoms: _61  and  _63
REMARK   24  A    between atoms: _63  and  _64
REMARK   25  A    between atoms: _63  and  _66
REMARK   26  A    between atoms: _66  and  _67
REMARK   27  A    between atoms: _69  and  _71
REMARK   28  A    between atoms: _71  and  _72
REMARK   29  A    between atoms: _71  and  _74
REMARK   30  A    between atoms: _74  and  _75
REMARK   31  A    between atoms: _78  and  _80
REMARK   32  A    between atoms: _80  and  _81
REMARK   33  A    between atoms: _80  and  _83
REMARK   34  A    between atoms: _83  and  _84
REMARK   35  A    between atoms: _84  and  _85
REMARK   36  A    between atoms: _85  and  _86
REMARK   37  A    between atoms: _95  and  _97
REMARK   38  A    between atoms: _97  and  _98
REMARK   39  A    between atoms: _97  and  _100
REMARK   40  A    between atoms: _100  and  _101
REMARK   41  A    between atoms: _103  and  _105
REMARK   42  A    between atoms: _105  and  _106
REMARK   43  A    between atoms: _108  and  _110
REMARK   44  A    between atoms: _110  and  _111
REMARK   45  A    between atoms: _110  and  _113
REMARK   46  A    between atoms: _113  and  _114
REMARK   47  A    between atoms: _117  and  _119
REMARK   48  A    between atoms: _119  and  _120
REMARK   49  A    between atoms: _122  and  _124
REMARK   50  A    between atoms: _124  and  _125
REMARK   51  A    between atoms: _127  and  _129
REMARK   52  A    between atoms: _129  and  _130
REMARK   53  A    between atoms: _129  and  _132
REMARK   54  A    between atoms: _132  and  _133
REMARK   55  A    between atoms: _133  and  _134
REMARK   56  A    between atoms: _134  and  _135
REMARK   57  A    between atoms: _144  and  _146
REMARK   58  A    between atoms: _146  and  _147
REMARK   59  A    between atoms: _146  and  _149
REMARK   60  A    between atoms: _149  and  _150
REMARK   61  A    between atoms: _155  and  _157
REMARK   62  A    between atoms: _157  and  _158
REMARK   63  A    between atoms: _157  and  _160
REMARK   64  A    between atoms: _160  and  _161
REMARK   65  A    between atoms: _164  and  _166
REMARK   66  A    between atoms: _166  and  _167
REMARK   67  A    between atoms: _166  and  _169
REMARK   68  A    between atoms: _169  and  _170
REMARK   69  A    between atoms: _173  and  _175
REMARK   70  A    between atoms: _175  and  _176
REMARK   71  A    between atoms: _175  and  _178
REMARK   72  A    between atoms: _178  and  _179
REMARK   73  A    between atoms: _181  and  _183
REMARK   74  A    between atoms: _183  and  _184
REMARK   75  A    between atoms: _183  and  _186
REMARK   76  A    between atoms: _186  and  _187
REMARK   77  A    between atoms: _187  and  _188
REMARK   78  A    between atoms: _188  and  _189
REMARK   79  A    between atoms: _198  and  _200
REMARK   80  A    between atoms: _200  and  _201
REMARK   81  A    between atoms: _200  and  _203
REMARK   82  A    between atoms: _203  and  _204
REMARK   83  A    between atoms: _209  and  _211
REMARK   84  A    between atoms: _211  and  _212
REMARK   85  A    between atoms: _211  and  _214
REMARK   86  A    between atoms: _214  and  _215
REMARK   87  A    between atoms: _215  and  _216
REMARK   88  A    between atoms: _216  and  _217
REMARK   89  A    between atoms: _226  and  _228
REMARK   90  A    between atoms: _228  and  _229
REMARK   91  A    between atoms: _228  and  _231
REMARK   92  A    between atoms: _231  and  _232
REMARK   93  A    between atoms: _235  and  _237
REMARK   94  A    between atoms: _237  and  _238
REMARK   95  A    between atoms: _240  and  _242
REMARK   96  A    between atoms: _242  and  _243
REMARK   97  A    between atoms: _242  and  _245
REMARK   98  A    between atoms: _245  and  _246
REMARK   99  A    between atoms: _248  and  _250
REMARK  100  A    between atoms: _250  and  _251
REMARK  101  A    between atoms: _250  and  _253
REMARK  102  A    between atoms: _253  and  _254
REMARK  103  A    between atoms: _259  and  _261
REMARK  104  A    between atoms: _261  and  _262
REMARK  105  A    between atoms: _261  and  _264
REMARK  106  A    between atoms: _264  and  _265
REMARK  107  A    between atoms: _265  and  _266
REMARK  108  A    between atoms: _266  and  _267
REMARK  109  A    between atoms: _276  and  _278
REMARK  110  A    between atoms: _278  and  _279
REMARK  111  A    between atoms: _278  and  _281
REMARK  112  A    between atoms: _281  and  _282
REMARK  113  A    between atoms: _285  and  _287
REMARK  114  A    between atoms: _287  and  _288
REMARK  115  A    between atoms: _290  and  _292
REMARK  116  A    between atoms: _292  and  _293
REMARK  117  A    between atoms: _292  and  _295
REMARK  118  A    between atoms: _298  and  _300
REMARK  119  A    between atoms: _300  and  _301
REMARK  120  A    between atoms: _303  and  _305
REMARK  121  A    between atoms: _305  and  _306
REMARK  122  A    between atoms: _308  and  _310
REMARK  123  A    between atoms: _310  and  _311
REMARK  124  A    between atoms: _310  and  _313
REMARK  125  A    between atoms: _313  and  _314
REMARK  126  A    between atoms: _320  and  _322
REMARK  127  A    between atoms: _322  and  _323
REMARK  128  A    between atoms: _322  and  _325
REMARK  129  A    between atoms: _325  and  _326
REMARK  130  A    between atoms: _329  and  _331
REMARK  131  A    between atoms: _331  and  _332
REMARK  132  A    between atoms: _334  and  _336
REMARK  133  A    between atoms: _336  and  _337
REMARK  134  A    between atoms: _336  and  _339
REMARK  135  A    between atoms: _339  and  _340
REMARK  136  A    between atoms: _345  and  _347
REMARK  137  A    between atoms: _347  and  _348
REMARK  138  A    between atoms: _347  and  _350
REMARK  139  A    between atoms: _350  and  _351
REMARK  140  A    between atoms: _351  and  _352
REMARK  141  A    between atoms: _352  and  _353
REMARK  142  A    between atoms: _362  and  _364
REMARK  143  A    between atoms: _364  and  _365
REMARK  144  A    between atoms: _364  and  _367
REMARK  145  A    between atoms: _367  and  _368
REMARK  146  A    between atoms: _371  and  _373
REMARK  147  A    between atoms: _373  and  _374
REMARK  148  A    between atoms: _373  and  _376
REMARK  149  A    between atoms: _376  and  _377
REMARK  150  A    between atoms: _377  and  _378
REMARK  151  A    between atoms: _378  and  _379
REMARK  152  A    between atoms: _388  and  _390
REMARK  153  A    between atoms: _390  and  _391
REMARK  154  A    between atoms: _390  and  _393
REMARK  155  A    between atoms: _393  and  _394
REMARK  156  A    between atoms: _396  and  _398
REMARK  157  A    between atoms: _398  and  _399
REMARK  158  A    between atoms: _401  and  _403
REMARK  159  A    between atoms: _403  and  _404
REMARK  160  A    between atoms: _407  and  _409
REMARK  161  A    between atoms: _409  and  _410
REMARK  162  A    between atoms: _412  and  _414
REMARK  163  A    between atoms: _414  and  _415
REMARK  164  A    between atoms: _414  and  _417
REMARK  165  A    between atoms: _417  and  _418
REMARK  166  A    between atoms: _423  and  _424
REMARK  167  A    between atoms: _426  and  _428
REMARK  168  A    between atoms: _428  and  _429
REMARK  169  A    between atoms: _428  and  _431
REMARK  170  A    between atoms: _431  and  _432
REMARK  171  A    between atoms: _435  and  _437
REMARK  172  A    between atoms: _437  and  _438
REMARK  173  A    between atoms: _440  and  _442
REMARK  174  A    between atoms: _442  and  _443
REMARK  175  A    between atoms: _442  and  _445
REMARK  176  A    between atoms: _445  and  _446
REMARK  177  A    between atoms: _446  and  _447
REMARK  178  A    between atoms: _452  and  _454
REMARK  179  A    between atoms: _454  and  _455
REMARK  180  A    between atoms: _454  and  _457
REMARK  181  A    between atoms: _457  and  _458
REMARK  182  A    between atoms: _461  and  _463
REMARK  183  A    between atoms: _463  and  _464
REMARK  184  A    between atoms: _463  and  _466
REMARK  185  A    between atoms: _466  and  _467
REMARK  186  A    between atoms: _467  and  _468
REMARK  187  A    between atoms: _473  and  _475
REMARK  188  A    between atoms: _475  and  _476
REMARK  189  A    between atoms: _475  and  _478
REMARK  190  A    between atoms: _478  and  _479
REMARK  191  A    between atoms: _482  and  _484
REMARK  192  A    between atoms: _484  and  _485
REMARK  193  A    between atoms: _484  and  _487
REMARK  194  A    between atoms: _487  and  _488
REMARK  195  A    between atoms: _488  and  _489
REMARK  196  A    between atoms: _489  and  _490
REMARK  197  A    between atoms: _499  and  _501
REMARK  198  A    between atoms: _501  and  _502
REMARK  199  A    between atoms: _501  and  _504
REMARK  200  A    between atoms: _504  and  _505
REMARK  201  A    between atoms: _507  and  _509
REMARK  202  A    between atoms: _509  and  _510
REMARK  203  A    between atoms: _513  and  _515
REMARK  204  A    between atoms: _515  and  _516
REMARK  205  A    between atoms: _515  and  _518
REMARK  206  A    between atoms: _518  and  _519
REMARK  207  A    between atoms: _522  and  _524
REMARK  208  A    between atoms: _524  and  _525
REMARK  209  A    between atoms: _527  and  _529
REMARK  210  A    between atoms: _529  and  _530
REMARK  211  A    between atoms: _529  and  _532
REMARK  212  A    between atoms: _532  and  _533
REMARK  213  A    between atoms: _538  and  _539
REMARK  214  A    between atoms: _541  and  _543
REMARK  215  A    between atoms: _543  and  _544
REMARK  216  A    between atoms: _543  and  _546
REMARK  217  A    between atoms: _546  and  _547
REMARK  218  A    between atoms: _550  and  _552
REMARK  219  A    between atoms: _552  and  _553
REMARK  220  A    between atoms: _555  and  _557
REMARK  221  A    between atoms: _557  and  _558
REMARK  222  A    between atoms: _557  and  _560
REMARK  223  A    between atoms: _560  and  _561
REMARK  224  A    between atoms: _566  and  _568
REMARK  225  A    between atoms: _568  and  _569
REMARK  226  A    between atoms: _568  and  _571
REMARK  227  A    between atoms: _571  and  _572
REMARK  228  A    between atoms: _575  and  _577
REMARK  229  A    between atoms: _577  and  _578
REMARK  230  A    between atoms: _577  and  _580
REMARK  231  A    between atoms: _580  and  _581
REMARK  232  A    between atoms: _587  and  _589
REMARK  233  A    between atoms: _589  and  _590
REMARK  234  A    between atoms: _589  and  _592
REMARK  235  A    between atoms: _592  and  _593
REMARK  236  A    between atoms: _593  and  _594
REMARK  237  A    between atoms: _594  and  _595
REMARK  238  A    between atoms: _604  and  _606
REMARK  239  A    between atoms: _606  and  _607
REMARK  240  A    between atoms: _606  and  _609
REMARK  241  A    between atoms: _609  and  _610
REMARK  242  A    between atoms: _612  and  _614
REMARK  243  A    between atoms: _614  and  _615
REMARK  244  A    between atoms: _617  and  _619
REMARK  245  A    between atoms: _619  and  _620
REMARK  246  A    between atoms: _619  and  _622
REMARK                            x       y       z     vdW  Elec       q    Type
REMARK                         _______ _______ _______ _____ _____    ______ ____
ROOT
ATOM      1  CA  ARG A   4      11.043  10.875 -24.733  0.00  0.00    +0.149 C 
ENDROOT
BRANCH   1   2
ATOM      2  C   ARG A   4      11.336  10.567 -23.267  0.00  0.00    +0.241 C 
ATOM      3  N   GLN A   5      10.454  11.032 -22.388  0.00  0.00    -0.297 N 
ATOM      4  H   GLN A   5       9.661  11.610 -22.732  0.00  0.00    +0.150 HD
ATOM      5  O   ARG A   4      12.335   9.927 -22.942  0.00  0.00    -0.273 OA
BRANCH   3   6
ATOM      6  CA  GLN A   5      10.557  10.761 -20.959  0.00  0.00    +0.149 C 
BRANCH   6   7
ATOM      7  C   GLN A   5       9.206  10.967 -20.274  0.00  0.00    +0.241 C 
ATOM      8  N   SER A   6       9.127  10.616 -18.994  0.00  0.00    -0.295 N 
ATOM      9  H   SER A   6       9.960  10.205 -18.527  0.00  0.00    +0.150 HD
ATOM     10  O   GLN A   5       8.250  11.426 -20.899  0.00  0.00    -0.273 OA
BRANCH   8  11
ATOM     11  CA  SER A   6       7.896  10.795 -18.230  0.00  0.00    +0.178 C 
BRANCH  11  12
ATOM     12  C   SER A   6       7.526  12.272 -18.143  0.00  0.00    +0.243 C 
ATOM     13  O   SER A   6       8.386  13.123 -17.914  0.00  0.00    -0.273 OA
ATOM     14  N   LEU A   7       6.244  12.574 -18.321  0.00  0.00    -0.298 N 
ATOM     15  H   LEU A   7       5.545  11.807 -18.388  0.00  0.00    +0.150 HD
BRANCH  14  16
ATOM     16  CA  LEU A   7       5.798  13.960 -18.424  0.00  0.00    +0.137 C 
BRANCH  16  17
ATOM     17  C   LEU A   7       5.126  14.465 -17.153  0.00  0.00    +0.227 C 
ATOM     18  O   LEU A   7       4.658  13.681 -16.328  0.00  0.00    -0.286 OA
ENDBRANCH  16  17
BRANCH  16  19
ATOM     19  CB  LEU A   7       4.861  14.128 -19.623  0.00  0.00    +0.028 C 
BRANCH  19  20
ATOM     20  CG  LEU A   7       5.443  13.688 -20.968  0.00  0.00    +0.002 C 
ATOM     21  CD2 LEU A   7       6.726  14.448 -21.275  0.00  0.00    +0.000 C 
ATOM     22  CD1 LEU A   7       4.424  13.864 -22.086  0.00  0.00    +0.000 C 
ENDBRANCH  19  20
ENDBRANCH  16  19
ENDBRANCH  14  16
ENDBRANCH  11  12
BRANCH  11  23
ATOM     23  CB  SER A   6       8.039  10.195 -16.833  0.00  0.00    +0.166 C 
BRANCH  23  24
ATOM     24  OG  SER A   6       8.258   8.797 -16.907  0.00  0.00    -0.380 OA
ATOM     25  H   SER A   6       8.348   8.429 -15.992  0.00  0.00    +0.211 HD
ENDBRANCH  23  24
ENDBRANCH  11  23
ENDBRANCH   8  11
ENDBRANCH   6   7
BRANCH   6  26
ATOM     26  CB  GLN A   5      11.631  11.645 -20.319  0.00  0.00    +0.039 C 
BRANCH  26  27
ATOM     27  CG  GLN A   5      11.530  13.117 -20.686  0.00  0.00    +0.087 C 
BRANCH  27  28
ATOM     28  CD  GLN A   5      12.758  13.909 -20.270  0.00  0.00    +0.219 C 
ATOM     29  OE1 GLN A   5      13.494  13.508 -19.366  0.00  0.00    -0.275 OA
ATOM     30  NE2 GLN A   5      12.990  15.035 -20.937  0.00  0.00    -0.329 N 
ATOM     31 HE21 GLN A   5      13.820  15.616 -20.703  0.00  0.00    +0.145 HD
ATOM     32 HE22 GLN A   5      12.342  15.335 -21.693  0.00  0.00    +0.145 HD
ENDBRANCH  27  28
ENDBRANCH  26  27
ENDBRANCH   6  26
ENDBRANCH   3   6
ENDBRANCH   1   2
BRANCH   1  35
ATOM     33  C   PHE A   3       8.759  11.719 -24.545  0.00  0.00    +0.241 C 
ATOM     34  O   PHE A   3       9.117  12.759 -23.995  0.00  0.00    -0.273 OA
ATOM     35  N   ARG A   4       9.609  10.799 -24.991  0.00  0.00    -0.297 N 
ATOM     36  H   ARG A   4       9.239   9.998 -25.542  0.00  0.00    +0.150 HD
BRANCH  33  37
ATOM     37  CA  PHE A   3       7.282  11.412 -24.741  0.00  0.00    +0.153 C 
BRANCH  37  39
ATOM     38  C   TYR A   2       5.569  10.370 -23.348  0.00  0.00    +0.241 C 
ATOM     39  N   PHE A   3       6.691  11.073 -23.454  0.00  0.00    -0.297 N 
ATOM     40  H   PHE A   3       7.165  11.393 -22.585  0.00  0.00    +0.150 HD
ATOM     41  O   TYR A   2       4.821  10.140 -24.300  0.00  0.00    -0.273 OA
BRANCH  38  42
ATOM     42  CA  TYR A   2       5.252   9.854 -21.949  0.00  0.00    +0.153 C 
BRANCH  42  45
ATOM     43  C   GLY A   1       3.601  10.442 -20.274  0.00  0.00    +0.240 C 
ATOM     44  O   GLY A   1       4.472  10.635 -19.423  0.00  0.00    -0.274 OA
ATOM     45  N   TYR A   2       3.879  10.092 -21.526  0.00  0.00    -0.297 N 
ATOM     46  H   TYR A   2       3.105   9.987 -22.213  0.00  0.00    +0.150 HD
BRANCH  43  47
ATOM     47  CA  GLY A   1       2.136  10.604 -19.923  0.00  0.00    +0.169 C 
BRANCH  47  48
ATOM     48  N   GLY A   1       1.982  11.074 -18.560  0.00  0.00    -0.236 NA
ATOM     49  H   GLY A   1       2.201  10.430 -17.773  0.00  0.00    +0.142 HD
ENDBRANCH  47  48
ENDBRANCH  43  47
ENDBRANCH  42  45
BRANCH  42  50
ATOM     50  CB  TYR A   2       5.591   8.365 -21.871  0.00  0.00    +0.055 C 
BRANCH  50  51
ATOM     51  CG  TYR A   2       6.977   8.040 -22.383  0.00  0.00    -0.020 A 
ATOM     52  CD2 TYR A   2       8.065   8.000 -21.521  0.00  0.00    -0.001 A 
ATOM     53  CE2 TYR A   2       9.333   7.710 -21.984  0.00  0.00    +0.036 A 
ATOM     54  CZ  TYR A   2       9.528   7.458 -23.324  0.00  0.00    +0.134 A 
ATOM     55  CE1 TYR A   2       8.465   7.495 -24.201  0.00  0.00    +0.036 A 
ATOM     56  CD1 TYR A   2       7.200   7.787 -23.730  0.00  0.00    -0.001 A 
BRANCH  54  57
ATOM     57  OH  TYR A   2      10.791   7.170 -23.789  0.00  0.00    -0.506 OA
ATOM     58  HH  TYR A   2      11.431   7.185 -23.034  0.00  0.00    +0.292 HD
ENDBRANCH  54  57
ENDBRANCH  50  51
ENDBRANCH  42  50
ENDBRANCH  38  42
ENDBRANCH  37  39
BRANCH  37  59
ATOM     59  CB  PHE A   3       6.570  12.591 -25.402  0.00  0.00    +0.055 C 
BRANCH  59  60
ATOM     60  CG  PHE A   3       7.079  12.898 -26.780  0.00  0.00    -0.020 A 
ATOM     61  CD2 PHE A   3       7.798  14.055 -27.029  0.00  0.00    -0.004 A 
ATOM     62  CE2 PHE A   3       8.271  14.335 -28.293  0.00  0.00    -0.000 A 
ATOM     63  CZ  PHE A   3       8.031  13.454 -29.327  0.00  0.00    -0.000 A 
ATOM     64  CE1 PHE A   3       7.318  12.296 -29.093  0.00  0.00    -0.000 A 
ATOM     65  CD1 PHE A   3       6.848  12.022 -27.827  0.00  0.00    -0.004 A 
ENDBRANCH  59  60
ENDBRANCH  37  59
ENDBRANCH  33  37
ENDBRANCH   1  35
BRANCH   1  66
ATOM     66  CB  ARG A   4      11.603  12.250 -25.102  0.00  0.00    +0.033 C 
BRANCH  66  67
ATOM     67  CG  ARG A   4      13.110  12.346 -24.916  0.00  0.00    +0.045 C 
BRANCH  67  68
ATOM     68  CD  ARG A   4      13.604  13.783 -24.901  0.00  0.00    +0.174 C 
BRANCH  68  69
ATOM     69  NE  ARG A   4      15.016  13.848 -24.532  0.00  0.00    -0.265 N 
ATOM     70  HE  ARG A   4      15.319  13.329 -23.683  0.00  0.00    +0.259 HD
ATOM     71  CZ  ARG A   4      15.939  14.525 -25.207  0.00  0.00    +0.342 C 
ATOM     72  NH2 ARG A   4      17.199  14.520 -24.795  0.00  0.00    -0.292 N 
ATOM     73 HH21 ARG A   4      17.465  13.986 -23.943  0.00  0.00    +0.255 HD
ATOM     74 HH22 ARG A   4      17.921  15.050 -25.324  0.00  0.00    +0.255 HD
ATOM     75  NH1 ARG A   4      15.602  15.209 -26.292  0.00  0.00    -0.292 N 
ATOM     76 HH11 ARG A   4      14.614  15.216 -26.616  0.00  0.00    +0.255 HD
ATOM     77 HH12 ARG A   4      16.326  15.738 -26.819  0.00  0.00    +0.255 HD
ENDBRANCH  68  69
ENDBRANCH  67  68
ENDBRANCH  66  67
ENDBRANCH   1  66
TORSDOF 30
REMARK  Name = ../refined-set-2016/4xmb/4xmb_pocket.pdb
REMARK  246 active torsions:
REMARK  status: ('A' for Active; 'I' for Inactive)
REMARK    1  A    between atoms: _1  and  _3
REMARK    2  A    between atoms: _3  and  _4
REMARK    3  A    between atoms: _6  and  _8
REMARK    4  A    between atoms: _8  and  _9
REMARK    5  A    between atoms: _8  and  _11
REMARK    6  A    between atoms: _11  and  _12
REMARK    7  A    between atoms: _17  and  _18
REMARK    8  A    between atoms: _20  and  _22
REMARK    9  A    between atoms: _22  and  _23
REMARK   10  A    between atoms: _22  and  _25
REMARK   11  A    between atoms: _25  and  _26
REMARK   12  A    between atoms: _32  and  _34
REMARK   13  A    between atoms: _34  and  _35
REMARK   14  A    between atoms: _34  and  _37
REMARK   15  A    between atoms: _37  and  _38
REMARK   16  A    between atoms: _38  and  _39
REMARK   17  A    between atoms: _39  and  _40
REMARK   18  A    between atoms: _49  and  _51
REMARK   19  A    between atoms: _51  and  _52
REMARK   20  A    between atoms: _51  and  _54
REMARK   21  A    between atoms: _54  and  _55
REMARK   22  A    between atoms: _55  and  _56
REMARK   23  A    between atoms: _61  and  _63
REMARK   24  A    between atoms: _63  and  _64
REMARK   25  A    between atoms: _63  and  _66
REMARK   26  A    between atoms: _66  and  _67
REMARK   27  A    between atoms: _69  and  _71
REMARK   28  A    between atoms: _71  and  _72
REMARK   29  A    between atoms: _71  and  _74
REMARK   30  A    between atoms: _74  and  _75
REMARK   31  A    between atoms: _78  and  _80
REMARK   32  A    between atoms: _80  and  _81
REMARK   33  A    between atoms: _80  and  _83
REMARK   34  A    between atoms: _83  and  _84
REMARK   35  A    between atoms: _84  and  _85
REMARK   36  A    between atoms: _85  and  _86
REMARK   37  A    between atoms: _95  and  _97
REMARK   38  A    between atoms: _97  and  _98
REMARK   39  A    between atoms: _97  and  _100
REMARK   40  A    between atoms: _100  and  _101
REMARK   41  A    between atoms: _103  and  _105
REMARK   42  A    between atoms: _105  and  _106
REMARK   43  A    between atoms: _108  and  _110
REMARK   44  A    between atoms: _110  and  _111
REMARK   45  A    between atoms: _110  and  _113
REMARK   46  A    between atoms: _113  and  _114
REMARK   47  A    between atoms: _117  and  _119
REMARK   48  A    between atoms: _119  and  _120
REMARK   49  A    between atoms: _122  and  _124
REMARK   50  A    between atoms: _124  and  _125
REMARK   51  A    between atoms: _127  and  _129
REMARK   52  A    between atoms: _129  and  _130
REMARK   53  A    between atoms: _129  and  _132
REMARK   54  A    between atoms: _132  and  _133
REMARK   55  A    between atoms: _133  and  _134
REMARK   56  A    between atoms: _134  and  _135
REMARK   57  A    between atoms: _144  and  _146
REMARK   58  A    between atoms: _146  and  _147
REMARK   59  A    between atoms: _146  and  _149
REMARK   60  A    between atoms: _149  and  _150
REMARK   61  A    between atoms: _155  and  _157
REMARK   62  A    between atoms: _157  and  _158
REMARK   63  A    between atoms: _157  and  _160
REMARK   64  A    between atoms: _160  and  _161
REMARK   65  A    between atoms: _164  and  _166
REMARK   66  A    between atoms: _166  and  _167
REMARK   67  A    between atoms: _166  and  _169
REMARK   68  A    between atoms: _169  and  _170
REMARK   69  A    between atoms: _173  and  _175
REMARK   70  A    between atoms: _175  and  _176
REMARK   71  A    between atoms: _175  and  _178
REMARK   72  A    between atoms: _178  and  _179
REMARK   73  A    between atoms: _181  and  _183
REMARK   74  A    between atoms: _183  and  _184
REMARK   75  A    between atoms: _183  and  _186
REMARK   76  A    between atoms: _186  and  _187
REMARK   77  A    between atoms: _187  and  _188
REMARK   78  A    between atoms: _188  and  _189
REMARK   79  A    between atoms: _198  and  _200
REMARK   80  A    between atoms: _200  and  _201
REMARK   81  A    between atoms: _200  and  _203
REMARK   82  A    between atoms: _203  and  _204
REMARK   83  A    between atoms: _209  and  _211
REMARK   84  A    between atoms: _211  and  _212
REMARK   85  A    between atoms: _211  and  _214
REMARK   86  A    between atoms: _214  and  _215
REMARK   87  A    between atoms: _215  and  _216
REMARK   88  A    between atoms: _216  and  _217
REMARK   89  A    between atoms: _226  and  _228
REMARK   90  A    between atoms: _228  and  _229
REMARK   91  A    between atoms: _228  and  _231
REMARK   92  A    between atoms: _231  and  _232
REMARK   93  A    between atoms: _235  and  _237
REMARK   94  A    between atoms: _237  and  _238
REMARK   95  A    between atoms: _240  and  _242
REMARK   96  A    between atoms: _242  and  _243
REMARK   97  A    between atoms: _242  and  _245
REMARK   98  A    between atoms: _245  and  _246
REMARK   99  A    between atoms: _248  and  _250
REMARK  100  A    between atoms: _250  and  _251
REMARK  101  A    between atoms: _250  and  _253
REMARK  102  A    between atoms: _253  and  _254
REMARK  103  A    between atoms: _259  and  _261
REMARK  104  A    between atoms: _261  and  _262
REMARK  105  A    between atoms: _261  and  _264
REMARK  106  A    between atoms: _264  and  _265
REMARK  107  A    between atoms: _265  and  _266
REMARK  108  A    between atoms: _266  and  _267
REMARK  109  A    between atoms: _276  and  _278
REMARK  110  A    between atoms: _278  and  _279
REMARK  111  A    between atoms: _278  and  _281
REMARK  112  A    between atoms: _281  and  _282
REMARK  113  A    between atoms: _285  and  _287
REMARK  114  A    between atoms: _287  and  _288
REMARK  115  A    between atoms: _290  and  _292
REMARK  116  A    between atoms: _292  and  _293
REMARK  117  A    between atoms: _292  and  _295
REMARK  118  A    between atoms: _298  and  _300
REMARK  119  A    between atoms: _300  and  _301
REMARK  120  A    between atoms: _303  and  _305
REMARK  121  A    between atoms: _305  and  _306
REMARK  122  A    between atoms: _308  and  _310
REMARK  123  A    between atoms: _310  and  _311
REMARK  124  A    between atoms: _310  and  _313
REMARK  125  A    between atoms: _313  and  _314
REMARK  126  A    between atoms: _320  and  _322
REMARK  127  A    between atoms: _322  and  _323
REMARK  128  A    between atoms: _322  and  _325
REMARK  129  A    between atoms: _325  and  _326
REMARK  130  A    between atoms: _329  and  _331
REMARK  131  A    between atoms: _331  and  _332
REMARK  132  A    between atoms: _334  and  _336
REMARK  133  A    between atoms: _336  and  _337
REMARK  134  A    between atoms: _336  and  _339
REMARK  135  A    between atoms: _339  and  _340
REMARK  136  A    between atoms: _345  and  _347
REMARK  137  A    between atoms: _347  and  _348
REMARK  138  A    between atoms: _347  and  _350
REMARK  139  A    between atoms: _350  and  _351
REMARK  140  A    between atoms: _351  and  _352
REMARK  141  A    between atoms: _352  and  _353
REMARK  142  A    between atoms: _362  and  _364
REMARK  143  A    between atoms: _364  and  _365
REMARK  144  A    between atoms: _364  and  _367
REMARK  145  A    between atoms: _367  and  _368
REMARK  146  A    between atoms: _371  and  _373
REMARK  147  A    between atoms: _373  and  _374
REMARK  148  A    between atoms: _373  and  _376
REMARK  149  A    between atoms: _376  and  _377
REMARK  150  A    between atoms: _377  and  _378
REMARK  151  A    between atoms: _378  and  _379
REMARK  152  A    between atoms: _388  and  _390
REMARK  153  A    between atoms: _390  and  _391
REMARK  154  A    between atoms: _390  and  _393
REMARK  155  A    between atoms: _393  and  _394
REMARK  156  A    between atoms: _396  and  _398
REMARK  157  A    between atoms: _398  and  _399
REMARK  158  A    between atoms: _401  and  _403
REMARK  159  A    between atoms: _403  and  _404
REMARK  160  A    between atoms: _407  and  _409
REMARK  161  A    between atoms: _409  and  _410
REMARK  162  A    between atoms: _412  and  _414
REMARK  163  A    between atoms: _414  and  _415
REMARK  164  A    between atoms: _414  and  _417
REMARK  165  A    between atoms: _417  and  _418
REMARK  166  A    between atoms: _423  and  _424
REMARK  167  A    between atoms: _426  and  _428
REMARK  168  A    between atoms: _428  and  _429
REMARK  169  A    between atoms: _428  and  _431
REMARK  170  A    between atoms: _431  and  _432
REMARK  171  A    between atoms: _435  and  _437
REMARK  172  A    between atoms: _437  and  _438
REMARK  173  A    between atoms: _440  and  _442
REMARK  174  A    between atoms: _442  and  _443
REMARK  175  A    between atoms: _442  and  _445
REMARK  176  A    between atoms: _445  and  _446
REMARK  177  A    between atoms: _446  and  _447
REMARK  178  A    between atoms: _452  and  _454
REMARK  179  A    between atoms: _454  and  _455
REMARK  180  A    between atoms: _454  and  _457
REMARK  181  A    between atoms: _457  and  _458
REMARK  182  A    between atoms: _461  and  _463
REMARK  183  A    between atoms: _463  and  _464
REMARK  184  A    between atoms: _463  and  _466
REMARK  185  A    between atoms: _466  and  _467
REMARK  186  A    between atoms: _467  and  _468
REMARK  187  A    between atoms: _473  and  _475
REMARK  188  A    between atoms: _475  and  _476
REMARK  189  A    between atoms: _475  and  _478
REMARK  190  A    between atoms: _478  and  _479
REMARK  191  A    between atoms: _482  and  _484
REMARK  192  A    between atoms: _484  and  _485
REMARK  193  A    between atoms: _484  and  _487
REMARK  194  A    between atoms: _487  and  _488
REMARK  195  A    between atoms: _488  and  _489
REMARK  196  A    between atoms: _489  and  _490
REMARK  197  A    between atoms: _499  and  _501
REMARK  198  A    between atoms: _501  and  _502
REMARK  199  A    between atoms: _501  and  _504
REMARK  200  A    between atoms: _504  and  _505
REMARK  201  A    between atoms: _507  and  _509
REMARK  202  A    between atoms: _509  and  _510
REMARK  203  A    between atoms: _513  and  _515
REMARK  204  A    between atoms: _515  and  _516
REMARK  205  A    between atoms: _515  and  _518
REMARK  206  A    between atoms: _518  and  _519
REMARK  207  A    between atoms: _522  and  _524
REMARK  208  A    between atoms: _524  and  _525
REMARK  209  A    between atoms: _527  and  _529
REMARK  210  A    between atoms: _529  and  _530
REMARK  211  A    between atoms: _529  and  _532
REMARK  212  A    between atoms: _532  and  _533
REMARK  213  A    between atoms: _538  and  _539
REMARK  214  A    between atoms: _541  and  _543
REMARK  215  A    between atoms: _543  and  _544
REMARK  216  A    between atoms: _543  and  _546
REMARK  217  A    between atoms: _546  and  _547
REMARK  218  A    between atoms: _550  and  _552
REMARK  219  A    between atoms: _552  and  _553
REMARK  220  A    between atoms: _555  and  _557
REMARK  221  A    between atoms: _557  and  _558
REMARK  222  A    between atoms: _557  and  _560
REMARK  223  A    between atoms: _560  and  _561
REMARK  224  A    between atoms: _566  and  _568
REMARK  225  A    between atoms: _568  and  _569
REMARK  226  A    between atoms: _568  and  _571
REMARK  227  A    between atoms: _571  and  _572
REMARK  228  A    between atoms: _575  and  _577
REMARK  229  A    between atoms: _577  and  _578
REMARK  230  A    between atoms: _577  and  _580
REMARK  231  A    between atoms: _580  and  _581
REMARK  232  A    between atoms: _587  and  _589
REMARK  233  A    between atoms: _589  and  _590
REMARK  234  A    between atoms: _589  and  _592
REMARK  235  A    between atoms: _592  and  _593
REMARK  236  A    between atoms: _593  and  _594
REMARK  237  A    between atoms: _594  and  _595
REMARK  238  A    between atoms: _604  and  _606
REMARK  239  A    between atoms: _606  and  _607
REMARK  240  A    between atoms: _606  and  _609
REMARK  241  A    between atoms: _609  and  _610
REMARK  242  A    between atoms: _612  and  _614
REMARK  243  A    between atoms: _614  and  _615
REMARK  244  A    between atoms: _617  and  _619
REMARK  245  A    between atoms: _619  and  _620
REMARK  246  A    between atoms: _619  and  _622
REMARK                            x       y       z     vdW  Elec       q    Type
REMARK                         _______ _______ _______ _____ _____    ______ ____
ROOT
ATOM      1  CA  SER A   2       4.124   7.721 -17.241  0.00  0.00    +0.178 C 
ENDROOT
BRANCH   1   4
ATOM      2  C   ARG A   1       4.464   9.479 -15.597  0.00  0.00    +0.238 C 
ATOM      3  O   ARG A   1       3.532  10.150 -16.037  0.00  0.00    -0.274 OA
ATOM      4  N   SER A   2       4.861   8.339 -16.149  0.00  0.00    -0.295 N 
ATOM      5  H   SER A   2       5.721   7.876 -15.792  0.00  0.00    +0.150 HD
BRANCH   2   6
ATOM      6  CA  ARG A   1       5.245   9.932 -14.374  0.00  0.00    +0.145 C 
BRANCH   6   7
ATOM      7  N   ARG A   1       5.500  11.367 -14.390  0.00  0.00    -0.238 NA
ATOM      8  H   ARG A   1       4.824  12.003 -14.860  0.00  0.00    +0.142 HD
ENDBRANCH   6   7
BRANCH   6   9
ATOM      9  CB  ARG A   1       4.498   9.540 -13.098  0.00  0.00    +0.030 C 
BRANCH   9  10
ATOM     10  CG  ARG A   1       4.914  10.359 -11.887  0.00  0.00    +0.045 C 
BRANCH  10  11
ATOM     11  CD  ARG A   1       4.891   9.548 -10.606  0.00  0.00    +0.174 C 
BRANCH  11  12
ATOM     12  NE  ARG A   1       3.543   9.329 -10.091  0.00  0.00    -0.265 N 
ATOM     13  CZ  ARG A   1       2.834  10.249  -9.447  0.00  0.00    +0.342 C 
ATOM     14  NH2 ARG A   1       1.618   9.963  -8.998  0.00  0.00    -0.292 N 
ATOM     15 HH21 ARG A   1       1.066  10.686  -8.494  0.00  0.00    +0.255 HD
ATOM     16 HH22 ARG A   1       1.217   9.016  -9.150  0.00  0.00    +0.255 HD
ATOM     17  NH1 ARG A   1       3.338  11.462  -9.261  0.00  0.00    -0.292 N 
ATOM     18 HH11 ARG A   1       2.784  12.184  -8.757  0.00  0.00    +0.255 HD
ATOM     19 HH12 ARG A   1       4.287  11.691  -9.619  0.00  0.00    +0.255 HD
ATOM     20  HE  ARG A   1       3.111   8.394 -10.237  0.00  0.00    +0.259 HD
ENDBRANCH  11  12
ENDBRANCH  10  11
ENDBRANCH   9  10
ENDBRANCH   6   9
ENDBRANCH   2   6
ENDBRANCH   1   4
BRANCH   1  21
ATOM     21  C   SER A   2       3.538   6.408 -16.750  0.00  0.00    +0.243 C 
ATOM     22  O   SER A   2       3.965   5.876 -15.726  0.00  0.00    -0.273 OA
ATOM     23  N   GLY A   3       2.561   5.886 -17.478  0.00  0.00    -0.295 N 
ATOM     24  H   GLY A   3       2.238   6.383 -18.333  0.00  0.00    +0.150 HD
BRANCH  23  25
ATOM     25  CA  GLY A   3       1.935   4.634 -17.102  0.00  0.00    +0.176 C 
BRANCH  25  26
ATOM     26  C   GLY A   3       1.291   4.708 -15.732  0.00  0.00    +0.243 C 
ATOM     27  O   GLY A   3       1.216   3.707 -15.019  0.00  0.00    -0.273 OA
ATOM     28  N   LEU A   4       0.835   5.900 -15.361  0.00  0.00    -0.298 N 
ATOM     29  H   LEU A   4       0.992   6.719 -15.982  0.00  0.00    +0.150 HD
BRANCH  28  30
ATOM     30  CA  LEU A   4       0.120   6.086 -14.103  0.00  0.00    +0.137 C 
BRANCH  30  31
ATOM     31  C   LEU A   4      -1.379   5.988 -14.345  0.00  0.00    +0.227 C 
ATOM     32  O   LEU A   4      -1.824   5.810 -15.478  0.00  0.00    -0.286 OA
ENDBRANCH  30  31
BRANCH  30  33
ATOM     33  CB  LEU A   4       0.443   7.447 -13.485  0.00  0.00    +0.028 C 
BRANCH  33  34
ATOM     34  CG  LEU A   4      -0.146   8.658 -14.213  0.00  0.00    +0.002 C 
ATOM     35  CD2 LEU A   4      -0.181   9.880 -13.308  0.00  0.00    +0.000 C 
ATOM     36  CD1 LEU A   4       0.640   8.953 -15.481  0.00  0.00    +0.000 C 
ENDBRANCH  33  34
ENDBRANCH  30  33
ENDBRANCH  28  30
ENDBRANCH  25  26
ENDBRANCH  23  25
ENDBRANCH   1  21
BRANCH   1  37
ATOM     37  CB  SER A   2       5.039   7.466 -18.437  0.00  0.00    +0.166 C 
BRANCH  37  38
ATOM     38  OG  SER A   2       6.042   6.521 -18.111  0.00  0.00    -0.380 OA
ATOM     39  H   SER A   2       6.587   6.866 -17.360  0.00  0.00    +0.211 HD
ENDBRANCH  37  38
ENDBRANCH   1  37
TORSDOF 16
REMARK  Name = ../refined-set-2016/4xmb/4xmb_pocket.pdb
REMARK  246 active torsions:
REMARK  status: ('A' for Active; 'I' for Inactive)
REMARK    1  A    between atoms: _1  and  _3
REMARK    2  A    between atoms: _3  and  _4
REMARK    3  A    between atoms: _6  and  _8
REMARK    4  A    between atoms: _8  and  _9
REMARK    5  A    between atoms: _8  and  _11
REMARK    6  A    between atoms: _11  and  _12
REMARK    7  A    between atoms: _17  and  _18
REMARK    8  A    between atoms: _20  and  _22
REMARK    9  A    between atoms: _22  and  _23
REMARK   10  A    between atoms: _22  and  _25
REMARK   11  A    between atoms: _25  and  _26
REMARK   12  A    between atoms: _32  and  _34
REMARK   13  A    between atoms: _34  and  _35
REMARK   14  A    between atoms: _34  and  _37
REMARK   15  A    between atoms: _37  and  _38
REMARK   16  A    between atoms: _38  and  _39
REMARK   17  A    between atoms: _39  and  _40
REMARK   18  A    between atoms: _49  and  _51
REMARK   19  A    between atoms: _51  and  _52
REMARK   20  A    between atoms: _51  and  _54
REMARK   21  A    between atoms: _54  and  _55
REMARK   22  A    between atoms: _55  and  _56
REMARK   23  A    between atoms: _61  and  _63
REMARK   24  A    between atoms: _63  and  _64
REMARK   25  A    between atoms: _63  and  _66
REMARK   26  A    between atoms: _66  and  _67
REMARK   27  A    between atoms: _69  and  _71
REMARK   28  A    between atoms: _71  and  _72
REMARK   29  A    between atoms: _71  and  _74
REMARK   30  A    between atoms: _74  and  _75
REMARK   31  A    between atoms: _78  and  _80
REMARK   32  A    between atoms: _80  and  _81
REMARK   33  A    between atoms: _80  and  _83
REMARK   34  A    between atoms: _83  and  _84
REMARK   35  A    between atoms: _84  and  _85
REMARK   36  A    between atoms: _85  and  _86
REMARK   37  A    between atoms: _95  and  _97
REMARK   38  A    between atoms: _97  and  _98
REMARK   39  A    between atoms: _97  and  _100
REMARK   40  A    between atoms: _100  and  _101
REMARK   41  A    between atoms: _103  and  _105
REMARK   42  A    between atoms: _105  and  _106
REMARK   43  A    between atoms: _108  and  _110
REMARK   44  A    between atoms: _110  and  _111
REMARK   45  A    between atoms: _110  and  _113
REMARK   46  A    between atoms: _113  and  _114
REMARK   47  A    between atoms: _117  and  _119
REMARK   48  A    between atoms: _119  and  _120
REMARK   49  A    between atoms: _122  and  _124
REMARK   50  A    between atoms: _124  and  _125
REMARK   51  A    between atoms: _127  and  _129
REMARK   52  A    between atoms: _129  and  _130
REMARK   53  A    between atoms: _129  and  _132
REMARK   54  A    between atoms: _132  and  _133
REMARK   55  A    between atoms: _133  and  _134
REMARK   56  A    between atoms: _134  and  _135
REMARK   57  A    between atoms: _144  and  _146
REMARK   58  A    between atoms: _146  and  _147
REMARK   59  A    between atoms: _146  and  _149
REMARK   60  A    between atoms: _149  and  _150
REMARK   61  A    between atoms: _155  and  _157
REMARK   62  A    between atoms: _157  and  _158
REMARK   63  A    between atoms: _157  and  _160
REMARK   64  A    between atoms: _160  and  _161
REMARK   65  A    between atoms: _164  and  _166
REMARK   66  A    between atoms: _166  and  _167
REMARK   67  A    between atoms: _166  and  _169
REMARK   68  A    between atoms: _169  and  _170
REMARK   69  A    between atoms: _173  and  _175
REMARK   70  A    between atoms: _175  and  _176
REMARK   71  A    between atoms: _175  and  _178
REMARK   72  A    between atoms: _178  and  _179
REMARK   73  A    between atoms: _181  and  _183
REMARK   74  A    between atoms: _183  and  _184
REMARK   75  A    between atoms: _183  and  _186
REMARK   76  A    between atoms: _186  and  _187
REMARK   77  A    between atoms: _187  and  _188
REMARK   78  A    between atoms: _188  and  _189
REMARK   79  A    between atoms: _198  and  _200
REMARK   80  A    between atoms: _200  and  _201
REMARK   81  A    between atoms: _200  and  _203
REMARK   82  A    between atoms: _203  and  _204
REMARK   83  A    between atoms: _209  and  _211
REMARK   84  A    between atoms: _211  and  _212
REMARK   85  A    between atoms: _211  and  _214
REMARK   86  A    between atoms: _214  and  _215
REMARK   87  A    between atoms: _215  and  _216
REMARK   88  A    between atoms: _216  and  _217
REMARK   89  A    between atoms: _226  and  _228
REMARK   90  A    between atoms: _228  and  _229
REMARK   91  A    between atoms: _228  and  _231
REMARK   92  A    between atoms: _231  and  _232
REMARK   93  A    between atoms: _235  and  _237
REMARK   94  A    between atoms: _237  and  _238
REMARK   95  A    between atoms: _240  and  _242
REMARK   96  A    between atoms: _242  and  _243
REMARK   97  A    between atoms: _242  and  _245
REMARK   98  A    between atoms: _245  and  _246
REMARK   99  A    between atoms: _248  and  _250
REMARK  100  A    between atoms: _250  and  _251
REMARK  101  A    between atoms: _250  and  _253
REMARK  102  A    between atoms: _253  and  _254
REMARK  103  A    between atoms: _259  and  _261
REMARK  104  A    between atoms: _261  and  _262
REMARK  105  A    between atoms: _261  and  _264
REMARK  106  A    between atoms: _264  and  _265
REMARK  107  A    between atoms: _265  and  _266
REMARK  108  A    between atoms: _266  and  _267
REMARK  109  A    between atoms: _276  and  _278
REMARK  110  A    between atoms: _278  and  _279
REMARK  111  A    between atoms: _278  and  _281
REMARK  112  A    between atoms: _281  and  _282
REMARK  113  A    between atoms: _285  and  _287
REMARK  114  A    between atoms: _287  and  _288
REMARK  115  A    between atoms: _290  and  _292
REMARK  116  A    between atoms: _292  and  _293
REMARK  117  A    between atoms: _292  and  _295
REMARK  118  A    between atoms: _298  and  _300
REMARK  119  A    between atoms: _300  and  _301
REMARK  120  A    between atoms: _303  and  _305
REMARK  121  A    between atoms: _305  and  _306
REMARK  122  A    between atoms: _308  and  _310
REMARK  123  A    between atoms: _310  and  _311
REMARK  124  A    between atoms: _310  and  _313
REMARK  125  A    between atoms: _313  and  _314
REMARK  126  A    between atoms: _320  and  _322
REMARK  127  A    between atoms: _322  and  _323
REMARK  128  A    between atoms: _322  and  _325
REMARK  129  A    between atoms: _325  and  _326
REMARK  130  A    between atoms: _329  and  _331
REMARK  131  A    between atoms: _331  and  _332
REMARK  132  A    between atoms: _334  and  _336
REMARK  133  A    between atoms: _336  and  _337
REMARK  134  A    between atoms: _336  and  _339
REMARK  135  A    between atoms: _339  and  _340
REMARK  136  A    between atoms: _345  and  _347
REMARK  137  A    between atoms: _347  and  _348
REMARK  138  A    between atoms: _347  and  _350
REMARK  139  A    between atoms: _350  and  _351
REMARK  140  A    between atoms: _351  and  _352
REMARK  141  A    between atoms: _352  and  _353
REMARK  142  A    between atoms: _362  and  _364
REMARK  143  A    between atoms: _364  and  _365
REMARK  144  A    between atoms: _364  and  _367
REMARK  145  A    between atoms: _367  and  _368
REMARK  146  A    between atoms: _371  and  _373
REMARK  147  A    between atoms: _373  and  _374
REMARK  148  A    between atoms: _373  and  _376
REMARK  149  A    between atoms: _376  and  _377
REMARK  150  A    between atoms: _377  and  _378
REMARK  151  A    between atoms: _378  and  _379
REMARK  152  A    between atoms: _388  and  _390
REMARK  153  A    between atoms: _390  and  _391
REMARK  154  A    between atoms: _390  and  _393
REMARK  155  A    between atoms: _393  and  _394
REMARK  156  A    between atoms: _396  and  _398
REMARK  157  A    between atoms: _398  and  _399
REMARK  158  A    between atoms: _401  and  _403
REMARK  159  A    between atoms: _403  and  _404
REMARK  160  A    between atoms: _407  and  _409
REMARK  161  A    between atoms: _409  and  _410
REMARK  162  A    between atoms: _412  and  _414
REMARK  163  A    between atoms: _414  and  _415
REMARK  164  A    between atoms: _414  and  _417
REMARK  165  A    between atoms: _417  and  _418
REMARK  166  A    between atoms: _423  and  _424
REMARK  167  A    between atoms: _426  and  _428
REMARK  168  A    between atoms: _428  and  _429
REMARK  169  A    between atoms: _428  and  _431
REMARK  170  A    between atoms: _431  and  _432
REMARK  171  A    between atoms: _435  and  _437
REMARK  172  A    between atoms: _437  and  _438
REMARK  173  A    between atoms: _440  and  _442
REMARK  174  A    between atoms: _442  and  _443
REMARK  175  A    between atoms: _442  and  _445
REMARK  176  A    between atoms: _445  and  _446
REMARK  177  A    between atoms: _446  and  _447
REMARK  178  A    between atoms: _452  and  _454
REMARK  179  A    between atoms: _454  and  _455
REMARK  180  A    between atoms: _454  and  _457
REMARK  181  A    between atoms: _457  and  _458
REMARK  182  A    between atoms: _461  and  _463
REMARK  183  A    between atoms: _463  and  _464
REMARK  184  A    between atoms: _463  and  _466
REMARK  185  A    between atoms: _466  and  _467
REMARK  186  A    between atoms: _467  and  _468
REMARK  187  A    between atoms: _473  and  _475
REMARK  188  A    between atoms: _475  and  _476
REMARK  189  A    between atoms: _475  and  _478
REMARK  190  A    between atoms: _478  and  _479
REMARK  191  A    between atoms: _482  and  _484
REMARK  192  A    between atoms: _484  and  _485
REMARK  193  A    between atoms: _484  and  _487
REMARK  194  A    between atoms: _487  and  _488
REMARK  195  A    between atoms: _488  and  _489
REMARK  196  A    between atoms: _489  and  _490
REMARK  197  A    between atoms: _499  and  _501
REMARK  198  A    between atoms: _501  and  _502
REMARK  199  A    between atoms: _501  and  _504
REMARK  200  A    between atoms: _504  and  _505
REMARK  201  A    between atoms: _507  and  _509
REMARK  202  A    between atoms: _509  and  _510
REMARK  203  A    between atoms: _513  and  _515
REMARK  204  A    between atoms: _515  and  _516
REMARK  205  A    between atoms: _515  and  _518
REMARK  206  A    between atoms: _518  and  _519
REMARK  207  A    between atoms: _522  and  _524
REMARK  208  A    between atoms: _524  and  _525
REMARK  209  A    between atoms: _527  and  _529
REMARK  210  A    between atoms: _529  and  _530
REMARK  211  A    between atoms: _529  and  _532
REMARK  212  A    between atoms: _532  and  _533
REMARK  213  A    between atoms: _538  and  _539
REMARK  214  A    between atoms: _541  and  _543
REMARK  215  A    between atoms: _543  and  _544
REMARK  216  A    between atoms: _543  and  _546
REMARK  217  A    between atoms: _546  and  _547
REMARK  218  A    between atoms: _550  and  _552
REMARK  219  A    between atoms: _552  and  _553
REMARK  220  A    between atoms: _555  and  _557
REMARK  221  A    between atoms: _557  and  _558
REMARK  222  A    between atoms: _557  and  _560
REMARK  223  A    between atoms: _560  and  _561
REMARK  224  A    between atoms: _566  and  _568
REMARK  225  A    between atoms: _568  and  _569
REMARK  226  A    between atoms: _568  and  _571
REMARK  227  A    between atoms: _571  and  _572
REMARK  228  A    between atoms: _575  and  _577
REMARK  229  A    between atoms: _577  and  _578
REMARK  230  A    between atoms: _577  and  _580
REMARK  231  A    between atoms: _580  and  _581
REMARK  232  A    between atoms: _587  and  _589
REMARK  233  A    between atoms: _589  and  _590
REMARK  234  A    between atoms: _589  and  _592
REMARK  235  A    between atoms: _592  and  _593
REMARK  236  A    between atoms: _593  and  _594
REMARK  237  A    between atoms: _594  and  _595
REMARK  238  A    between atoms: _604  and  _606
REMARK  239  A    between atoms: _606  and  _607
REMARK  240  A    between atoms: _606  and  _609
REMARK  241  A    between atoms: _609  and  _610
REMARK  242  A    between atoms: _612  and  _614
REMARK  243  A    between atoms: _614  and  _615
REMARK  244  A    between atoms: _617  and  _619
REMARK  245  A    between atoms: _619  and  _620
REMARK  246  A    between atoms: _619  and  _622
REMARK                            x       y       z     vdW  Elec       q    Type
REMARK                         _______ _______ _______ _____ _____    ______ ____
ROOT
ATOM      1  CA  ARG A   3       7.079   5.583 -13.713  0.00  0.00    +0.149 C 
ENDROOT
BRANCH   1   4
ATOM      2  C   GLY A   2       4.964   4.888 -12.728  0.00  0.00    +0.243 C 
ATOM      3  O   GLY A   2       5.520   4.110 -11.949  0.00  0.00    -0.273 OA
ATOM      4  N   ARG A   3       5.628   5.630 -13.608  0.00  0.00    -0.297 N 
ATOM      5  H   ARG A   3       5.096   6.262 -14.240  0.00  0.00    +0.150 HD
BRANCH   2   6
ATOM      6  CA  GLY A   2       3.457   5.051 -12.726  0.00  0.00    +0.176 C 
BRANCH   6   9
ATOM      7  C   GLY A   1       2.422   5.557 -10.591  0.00  0.00    +0.240 C 
ATOM      8  O   GLY A   1       2.455   6.768 -10.803  0.00  0.00    -0.274 OA
ATOM      9  N   GLY A   2       2.870   4.659 -11.461  0.00  0.00    -0.295 N 
ATOM     10  H   GLY A   2       2.797   3.648 -11.228  0.00  0.00    +0.150 HD
BRANCH   7  11
ATOM     11  CA  GLY A   1       1.858   5.007  -9.296  0.00  0.00    +0.169 C 
BRANCH  11  12
ATOM     12  N   GLY A   1       0.779   5.802  -8.734  0.00  0.00    -0.236 NA
ATOM     13  H   GLY A   1       0.806   6.043  -7.723  0.00  0.00    +0.142 HD
ENDBRANCH  11  12
ENDBRANCH   7  11
ENDBRANCH   6   9
ENDBRANCH   2   6
ENDBRANCH   1   4
BRANCH   1  14
ATOM     14  C   ARG A   3       7.651   6.989 -13.852  0.00  0.00    +0.241 C 
ATOM     15  N   ASN A   4       8.542   7.356 -12.937  0.00  0.00    -0.298 N 
ATOM     16  H   ASN A   4       8.799   6.688 -12.182  0.00  0.00    +0.150 HD
ATOM     17  O   ARG A   3       7.293   7.725 -14.769  0.00  0.00    -0.273 OA
BRANCH  15  18
ATOM     18  CA  ASN A   4       9.166   8.670 -12.966  0.00  0.00    +0.146 C 
BRANCH  18  19
ATOM     19  C   ASN A   4      10.458   8.673 -13.781  0.00  0.00    +0.227 C 
ATOM     20  O   ASN A   4      10.777   7.698 -14.461  0.00  0.00    -0.286 OA
ENDBRANCH  18  19
BRANCH  18  21
ATOM     21  CB  ASN A   4       9.432   9.170 -11.544  0.00  0.00    +0.112 C 
BRANCH  21  22
ATOM     22  CG  ASN A   4      10.345   8.244 -10.760  0.00  0.00    +0.222 C 
ATOM     23  ND2 ASN A   4      10.110   8.147  -9.456  0.00  0.00    -0.329 N 
ATOM     24 HD21 ASN A   4      10.697   7.523  -8.867  0.00  0.00    +0.145 HD
ATOM     25 HD22 ASN A   4       9.339   8.695  -9.024  0.00  0.00    +0.145 HD
ATOM     26  OD1 ASN A   4      11.245   7.617 -11.321  0.00  0.00    -0.275 OA
ENDBRANCH  21  22
ENDBRANCH  18  21
ENDBRANCH  15  18
ENDBRANCH   1  14
BRANCH   1  27
ATOM     27  CB  ARG A   3       7.502   4.727 -14.907  0.00  0.00    +0.033 C 
BRANCH  27  28
ATOM     28  CG  ARG A   3       9.005   4.509 -15.011  0.00  0.00    +0.045 C 
BRANCH  28  29
ATOM     29  CD  ARG A   3       9.362   3.693 -16.241  0.00  0.00    +0.174 C 
BRANCH  29  30
ATOM     30  NE  ARG A   3       9.164   4.453 -17.471  0.00  0.00    -0.265 N 
ATOM     31  HE  ARG A   3       8.910   5.458 -17.387  0.00  0.00    +0.259 HD
ATOM     32  CZ  ARG A   3       9.287   3.943 -18.692  0.00  0.00    +0.342 C 
ATOM     33  NH2 ARG A   3       9.603   2.665 -18.851  0.00  0.00    -0.292 N 
ATOM     34 HH21 ARG A   3       9.755   2.060 -18.019  0.00  0.00    +0.255 HD
ATOM     35 HH22 ARG A   3       9.699   2.268 -19.808  0.00  0.00    +0.255 HD
ATOM     36  NH1 ARG A   3       9.089   4.711 -19.756  0.00  0.00    -0.292 N 
ATOM     37 HH11 ARG A   3       8.837   5.713 -19.635  0.00  0.00    +0.255 HD
ATOM     38 HH12 ARG A   3       9.185   4.311 -20.711  0.00  0.00    +0.255 HD
ENDBRANCH  29  30
ENDBRANCH  28  29
ENDBRANCH  27  28
ENDBRANCH   1  27
TORSDOF 14
REMARK  Name = ../refined-set-2016/4xmb/4xmb_pocket.pdb
REMARK  246 active torsions:
REMARK  status: ('A' for Active; 'I' for Inactive)
REMARK    1  A    between atoms: _1  and  _3
REMARK    2  A    between atoms: _3  and  _4
REMARK    3  A    between atoms: _6  and  _8
REMARK    4  A    between atoms: _8  and  _9
REMARK    5  A    between atoms: _8  and  _11
REMARK    6  A    between atoms: _11  and  _12
REMARK    7  A    between atoms: _17  and  _18
REMARK    8  A    between atoms: _20  and  _22
REMARK    9  A    between atoms: _22  and  _23
REMARK   10  A    between atoms: _22  and  _25
REMARK   11  A    between atoms: _25  and  _26
REMARK   12  A    between atoms: _32  and  _34
REMARK   13  A    between atoms: _34  and  _35
REMARK   14  A    between atoms: _34  and  _37
REMARK   15  A    between atoms: _37  and  _38
REMARK   16  A    between atoms: _38  and  _39
REMARK   17  A    between atoms: _39  and  _40
REMARK   18  A    between atoms: _49  and  _51
REMARK   19  A    between atoms: _51  and  _52
REMARK   20  A    between atoms: _51  and  _54
REMARK   21  A    between atoms: _54  and  _55
REMARK   22  A    between atoms: _55  and  _56
REMARK   23  A    between atoms: _61  and  _63
REMARK   24  A    between atoms: _63  and  _64
REMARK   25  A    between atoms: _63  and  _66
REMARK   26  A    between atoms: _66  and  _67
REMARK   27  A    between atoms: _69  and  _71
REMARK   28  A    between atoms: _71  and  _72
REMARK   29  A    between atoms: _71  and  _74
REMARK   30  A    between atoms: _74  and  _75
REMARK   31  A    between atoms: _78  and  _80
REMARK   32  A    between atoms: _80  and  _81
REMARK   33  A    between atoms: _80  and  _83
REMARK   34  A    between atoms: _83  and  _84
REMARK   35  A    between atoms: _84  and  _85
REMARK   36  A    between atoms: _85  and  _86
REMARK   37  A    between atoms: _95  and  _97
REMARK   38  A    between atoms: _97  and  _98
REMARK   39  A    between atoms: _97  and  _100
REMARK   40  A    between atoms: _100  and  _101
REMARK   41  A    between atoms: _103  and  _105
REMARK   42  A    between atoms: _105  and  _106
REMARK   43  A    between atoms: _108  and  _110
REMARK   44  A    between atoms: _110  and  _111
REMARK   45  A    between atoms: _110  and  _113
REMARK   46  A    between atoms: _113  and  _114
REMARK   47  A    between atoms: _117  and  _119
REMARK   48  A    between atoms: _119  and  _120
REMARK   49  A    between atoms: _122  and  _124
REMARK   50  A    between atoms: _124  and  _125
REMARK   51  A    between atoms: _127  and  _129
REMARK   52  A    between atoms: _129  and  _130
REMARK   53  A    between atoms: _129  and  _132
REMARK   54  A    between atoms: _132  and  _133
REMARK   55  A    between atoms: _133  and  _134
REMARK   56  A    between atoms: _134  and  _135
REMARK   57  A    between atoms: _144  and  _146
REMARK   58  A    between atoms: _146  and  _147
REMARK   59  A    between atoms: _146  and  _149
REMARK   60  A    between atoms: _149  and  _150
REMARK   61  A    between atoms: _155  and  _157
REMARK   62  A    between atoms: _157  and  _158
REMARK   63  A    between atoms: _157  and  _160
REMARK   64  A    between atoms: _160  and  _161
REMARK   65  A    between atoms: _164  and  _166
REMARK   66  A    between atoms: _166  and  _167
REMARK   67  A    between atoms: _166  and  _169
REMARK   68  A    between atoms: _169  and  _170
REMARK   69  A    between atoms: _173  and  _175
REMARK   70  A    between atoms: _175  and  _176
REMARK   71  A    between atoms: _175  and  _178
REMARK   72  A    between atoms: _178  and  _179
REMARK   73  A    between atoms: _181  and  _183
REMARK   74  A    between atoms: _183  and  _184
REMARK   75  A    between atoms: _183  and  _186
REMARK   76  A    between atoms: _186  and  _187
REMARK   77  A    between atoms: _187  and  _188
REMARK   78  A    between atoms: _188  and  _189
REMARK   79  A    between atoms: _198  and  _200
REMARK   80  A    between atoms: _200  and  _201
REMARK   81  A    between atoms: _200  and  _203
REMARK   82  A    between atoms: _203  and  _204
REMARK   83  A    between atoms: _209  and  _211
REMARK   84  A    between atoms: _211  and  _212
REMARK   85  A    between atoms: _211  and  _214
REMARK   86  A    between atoms: _214  and  _215
REMARK   87  A    between atoms: _215  and  _216
REMARK   88  A    between atoms: _216  and  _217
REMARK   89  A    between atoms: _226  and  _228
REMARK   90  A    between atoms: _228  and  _229
REMARK   91  A    between atoms: _228  and  _231
REMARK   92  A    between atoms: _231  and  _232
REMARK   93  A    between atoms: _235  and  _237
REMARK   94  A    between atoms: _237  and  _238
REMARK   95  A    between atoms: _240  and  _242
REMARK   96  A    between atoms: _242  and  _243
REMARK   97  A    between atoms: _242  and  _245
REMARK   98  A    between atoms: _245  and  _246
REMARK   99  A    between atoms: _248  and  _250
REMARK  100  A    between atoms: _250  and  _251
REMARK  101  A    between atoms: _250  and  _253
REMARK  102  A    between atoms: _253  and  _254
REMARK  103  A    between atoms: _259  and  _261
REMARK  104  A    between atoms: _261  and  _262
REMARK  105  A    between atoms: _261  and  _264
REMARK  106  A    between atoms: _264  and  _265
REMARK  107  A    between atoms: _265  and  _266
REMARK  108  A    between atoms: _266  and  _267
REMARK  109  A    between atoms: _276  and  _278
REMARK  110  A    between atoms: _278  and  _279
REMARK  111  A    between atoms: _278  and  _281
REMARK  112  A    between atoms: _281  and  _282
REMARK  113  A    between atoms: _285  and  _287
REMARK  114  A    between atoms: _287  and  _288
REMARK  115  A    between atoms: _290  and  _292
REMARK  116  A    between atoms: _292  and  _293
REMARK  117  A    between atoms: _292  and  _295
REMARK  118  A    between atoms: _298  and  _300
REMARK  119  A    between atoms: _300  and  _301
REMARK  120  A    between atoms: _303  and  _305
REMARK  121  A    between atoms: _305  and  _306
REMARK  122  A    between atoms: _308  and  _310
REMARK  123  A    between atoms: _310  and  _311
REMARK  124  A    between atoms: _310  and  _313
REMARK  125  A    between atoms: _313  and  _314
REMARK  126  A    between atoms: _320  and  _322
REMARK  127  A    between atoms: _322  and  _323
REMARK  128  A    between atoms: _322  and  _325
REMARK  129  A    between atoms: _325  and  _326
REMARK  130  A    between atoms: _329  and  _331
REMARK  131  A    between atoms: _331  and  _332
REMARK  132  A    between atoms: _334  and  _336
REMARK  133  A    between atoms: _336  and  _337
REMARK  134  A    between atoms: _336  and  _339
REMARK  135  A    between atoms: _339  and  _340
REMARK  136  A    between atoms: _345  and  _347
REMARK  137  A    between atoms: _347  and  _348
REMARK  138  A    between atoms: _347  and  _350
REMARK  139  A    between atoms: _350  and  _351
REMARK  140  A    between atoms: _351  and  _352
REMARK  141  A    between atoms: _352  and  _353
REMARK  142  A    between atoms: _362  and  _364
REMARK  143  A    between atoms: _364  and  _365
REMARK  144  A    between atoms: _364  and  _367
REMARK  145  A    between atoms: _367  and  _368
REMARK  146  A    between atoms: _371  and  _373
REMARK  147  A    between atoms: _373  and  _374
REMARK  148  A    between atoms: _373  and  _376
REMARK  149  A    between atoms: _376  and  _377
REMARK  150  A    between atoms: _377  and  _378
REMARK  151  A    between atoms: _378  and  _379
REMARK  152  A    between atoms: _388  and  _390
REMARK  153  A    between atoms: _390  and  _391
REMARK  154  A    between atoms: _390  and  _393
REMARK  155  A    between atoms: _393  and  _394
REMARK  156  A    between atoms: _396  and  _398
REMARK  157  A    between atoms: _398  and  _399
REMARK  158  A    between atoms: _401  and  _403
REMARK  159  A    between atoms: _403  and  _404
REMARK  160  A    between atoms: _407  and  _409
REMARK  161  A    between atoms: _409  and  _410
REMARK  162  A    between atoms: _412  and  _414
REMARK  163  A    between atoms: _414  and  _415
REMARK  164  A    between atoms: _414  and  _417
REMARK  165  A    between atoms: _417  and  _418
REMARK  166  A    between atoms: _423  and  _424
REMARK  167  A    between atoms: _426  and  _428
REMARK  168  A    between atoms: _428  and  _429
REMARK  169  A    between atoms: _428  and  _431
REMARK  170  A    between atoms: _431  and  _432
REMARK  171  A    between atoms: _435  and  _437
REMARK  172  A    between atoms: _437  and  _438
REMARK  173  A    between atoms: _440  and  _442
REMARK  174  A    between atoms: _442  and  _443
REMARK  175  A    between atoms: _442  and  _445
REMARK  176  A    between atoms: _445  and  _446
REMARK  177  A    between atoms: _446  and  _447
REMARK  178  A    between atoms: _452  and  _454
REMARK  179  A    between atoms: _454  and  _455
REMARK  180  A    between atoms: _454  and  _457
REMARK  181  A    between atoms: _457  and  _458
REMARK  182  A    between atoms: _461  and  _463
REMARK  183  A    between atoms: _463  and  _464
REMARK  184  A    between atoms: _463  and  _466
REMARK  185  A    between atoms: _466  and  _467
REMARK  186  A    between atoms: _467  and  _468
REMARK  187  A    between atoms: _473  and  _475
REMARK  188  A    between atoms: _475  and  _476
REMARK  189  A    between atoms: _475  and  _478
REMARK  190  A    between atoms: _478  and  _479
REMARK  191  A    between atoms: _482  and  _484
REMARK  192  A    between atoms: _484  and  _485
REMARK  193  A    between atoms: _484  and  _487
REMARK  194  A    between atoms: _487  and  _488
REMARK  195  A    between atoms: _488  and  _489
REMARK  196  A    between atoms: _489  and  _490
REMARK  197  A    between atoms: _499  and  _501
REMARK  198  A    between atoms: _501  and  _502
REMARK  199  A    between atoms: _501  and  _504
REMARK  200  A    between atoms: _504  and  _505
REMARK  201  A    between atoms: _507  and  _509
REMARK  202  A    between atoms: _509  and  _510
REMARK  203  A    between atoms: _513  and  _515
REMARK  204  A    between atoms: _515  and  _516
REMARK  205  A    between atoms: _515  and  _518
REMARK  206  A    between atoms: _518  and  _519
REMARK  207  A    between atoms: _522  and  _524
REMARK  208  A    between atoms: _524  and  _525
REMARK  209  A    between atoms: _527  and  _529
REMARK  210  A    between atoms: _529  and  _530
REMARK  211  A    between atoms: _529  and  _532
REMARK  212  A    between atoms: _532  and  _533
REMARK  213  A    between atoms: _538  and  _539
REMARK  214  A    between atoms: _541  and  _543
REMARK  215  A    between atoms: _543  and  _544
REMARK  216  A    between atoms: _543  and  _546
REMARK  217  A    between atoms: _546  and  _547
REMARK  218  A    between atoms: _550  and  _552
REMARK  219  A    between atoms: _552  and  _553
REMARK  220  A    between atoms: _555  and  _557
REMARK  221  A    between atoms: _557  and  _558
REMARK  222  A    between atoms: _557  and  _560
REMARK  223  A    between atoms: _560  and  _561
REMARK  224  A    between atoms: _566  and  _568
REMARK  225  A    between atoms: _568  and  _569
REMARK  226  A    between atoms: _568  and  _571
REMARK  227  A    between atoms: _571  and  _572
REMARK  228  A    between atoms: _575  and  _577
REMARK  229  A    between atoms: _577  and  _578
REMARK  230  A    between atoms: _577  and  _580
REMARK  231  A    between atoms: _580  and  _581
REMARK  232  A    between atoms: _587  and  _589
REMARK  233  A    between atoms: _589  and  _590
REMARK  234  A    between atoms: _589  and  _592
REMARK  235  A    between atoms: _592  and  _593
REMARK  236  A    between atoms: _593  and  _594
REMARK  237  A    between atoms: _594  and  _595
REMARK  238  A    between atoms: _604  and  _606
REMARK  239  A    between atoms: _606  and  _607
REMARK  240  A    between atoms: _606  and  _609
REMARK  241  A    between atoms: _609  and  _610
REMARK  242  A    between atoms: _612  and  _614
REMARK  243  A    between atoms: _614  and  _615
REMARK  244  A    between atoms: _617  and  _619
REMARK  245  A    between atoms: _619  and  _620
REMARK  246  A    between atoms: _619  and  _622
REMARK                            x       y       z     vdW  Elec       q    Type
REMARK                         _______ _______ _______ _____ _____    ______ ____
ROOT
ATOM      1  CA  ASP A   2       8.841   2.617 -10.511  0.00  0.00    +0.160 C 
ENDROOT
BRANCH   1   3
ATOM      2  C   THR A   1      10.367   4.282 -11.411  0.00  0.00    +0.241 C 
ATOM      3  N   ASP A   2      10.177   3.088 -10.859  0.00  0.00    -0.297 N 
ATOM      4  H   ASP A   2      10.997   2.477 -10.671  0.00  0.00    +0.150 HD
ATOM      5  O   THR A   1       9.439   5.033 -11.715  0.00  0.00    -0.274 OA
BRANCH   2   6
ATOM      6  CA  THR A   1      11.813   4.693 -11.668  0.00  0.00    +0.172 C 
BRANCH   6   7
ATOM      7  N   THR A   1      12.779   3.847 -10.967  0.00  0.00    -0.236 NA
ATOM      8  H   THR A   1      13.086   2.953 -11.401  0.00  0.00    +0.142 HD
ENDBRANCH   6   7
BRANCH   6   9
ATOM      9  CB  THR A   1      12.067   4.720 -13.184  0.00  0.00    +0.135 C 
ATOM     10  CG2 THR A   1      13.432   5.316 -13.479  0.00  0.00    +0.034 C 
BRANCH   9  11
ATOM     11  OG1 THR A   1      12.006   3.387 -13.703  0.00  0.00    -0.383 OA
ATOM     12  HG1 THR A   1      12.170   3.406 -14.679  0.00  0.00    +0.210 HD
ENDBRANCH   9  11
ENDBRANCH   6   9
ENDBRANCH   2   6
ENDBRANCH   1   3
BRANCH   1  13
ATOM     13  C   ASP A   2       8.289   3.403  -9.321  0.00  0.00    +0.241 C 
ATOM     14  O   ASP A   2       8.931   3.502  -8.274  0.00  0.00    -0.273 OA
ATOM     15  N   SER A   3       7.096   3.962  -9.489  0.00  0.00    -0.296 N 
ATOM     16  H   SER A   3       6.560   3.766 -10.359  0.00  0.00    +0.150 HD
BRANCH  15  17
ATOM     17  CA  SER A   3       6.521   4.845  -8.480  0.00  0.00    +0.166 C 
BRANCH  17  18
ATOM     18  C   SER A   3       5.563   4.122  -7.538  0.00  0.00    +0.229 C 
ATOM     19  O   SER A   3       4.835   3.220  -7.945  0.00  0.00    -0.286 OA
ENDBRANCH  17  18
BRANCH  17  20
ATOM     20  CB  SER A   3       5.808   6.024  -9.153  0.00  0.00    +0.165 C 
BRANCH  20  21
ATOM     21  OG  SER A   3       5.210   6.882  -8.194  0.00  0.00    -0.380 OA
ATOM     22  H   SER A   3       5.909   7.239  -7.591  0.00  0.00    +0.211 HD
ENDBRANCH  20  21
ENDBRANCH  17  20
ENDBRANCH  15  17
ENDBRANCH   1  13
BRANCH   1  23
ATOM     23  CB  ASP A   2       8.855   1.115 -10.214  0.00  0.00    +0.143 C 
BRANCH  23  24
ATOM     24  CG  ASP A   2       8.997   0.273 -11.469  0.00  0.00    +0.367 C 
ATOM     25  OD2 ASP A   2       9.620  -0.808 -11.399  0.00  0.00    -0.246 OA
ATOM     26  OD1 ASP A   2       8.483   0.690 -12.528  0.00  0.00    -0.246 OA
ENDBRANCH  23  24
ENDBRANCH   1  23
TORSDOF 12
REMARK  Name = ../refined-set-2016/4xmb/4xmb_pocket.pdb
REMARK  246 active torsions:
REMARK  status: ('A' for Active; 'I' for Inactive)
REMARK    1  A    between atoms: _1  and  _3
REMARK    2  A    between atoms: _3  and  _4
REMARK    3  A    between atoms: _6  and  _8
REMARK    4  A    between atoms: _8  and  _9
REMARK    5  A    between atoms: _8  and  _11
REMARK    6  A    between atoms: _11  and  _12
REMARK    7  A    between atoms: _17  and  _18
REMARK    8  A    between atoms: _20  and  _22
REMARK    9  A    between atoms: _22  and  _23
REMARK   10  A    between atoms: _22  and  _25
REMARK   11  A    between atoms: _25  and  _26
REMARK   12  A    between atoms: _32  and  _34
REMARK   13  A    between atoms: _34  and  _35
REMARK   14  A    between atoms: _34  and  _37
REMARK   15  A    between atoms: _37  and  _38
REMARK   16  A    between atoms: _38  and  _39
REMARK   17  A    between atoms: _39  and  _40
REMARK   18  A    between atoms: _49  and  _51
REMARK   19  A    between atoms: _51  and  _52
REMARK   20  A    between atoms: _51  and  _54
REMARK   21  A    between atoms: _54  and  _55
REMARK   22  A    between atoms: _55  and  _56
REMARK   23  A    between atoms: _61  and  _63
REMARK   24  A    between atoms: _63  and  _64
REMARK   25  A    between atoms: _63  and  _66
REMARK   26  A    between atoms: _66  and  _67
REMARK   27  A    between atoms: _69  and  _71
REMARK   28  A    between atoms: _71  and  _72
REMARK   29  A    between atoms: _71  and  _74
REMARK   30  A    between atoms: _74  and  _75
REMARK   31  A    between atoms: _78  and  _80
REMARK   32  A    between atoms: _80  and  _81
REMARK   33  A    between atoms: _80  and  _83
REMARK   34  A    between atoms: _83  and  _84
REMARK   35  A    between atoms: _84  and  _85
REMARK   36  A    between atoms: _85  and  _86
REMARK   37  A    between atoms: _95  and  _97
REMARK   38  A    between atoms: _97  and  _98
REMARK   39  A    between atoms: _97  and  _100
REMARK   40  A    between atoms: _100  and  _101
REMARK   41  A    between atoms: _103  and  _105
REMARK   42  A    between atoms: _105  and  _106
REMARK   43  A    between atoms: _108  and  _110
REMARK   44  A    between atoms: _110  and  _111
REMARK   45  A    between atoms: _110  and  _113
REMARK   46  A    between atoms: _113  and  _114
REMARK   47  A    between atoms: _117  and  _119
REMARK   48  A    between atoms: _119  and  _120
REMARK   49  A    between atoms: _122  and  _124
REMARK   50  A    between atoms: _124  and  _125
REMARK   51  A    between atoms: _127  and  _129
REMARK   52  A    between atoms: _129  and  _130
REMARK   53  A    between atoms: _129  and  _132
REMARK   54  A    between atoms: _132  and  _133
REMARK   55  A    between atoms: _133  and  _134
REMARK   56  A    between atoms: _134  and  _135
REMARK   57  A    between atoms: _144  and  _146
REMARK   58  A    between atoms: _146  and  _147
REMARK   59  A    between atoms: _146  and  _149
REMARK   60  A    between atoms: _149  and  _150
REMARK   61  A    between atoms: _155  and  _157
REMARK   62  A    between atoms: _157  and  _158
REMARK   63  A    between atoms: _157  and  _160
REMARK   64  A    between atoms: _160  and  _161
REMARK   65  A    between atoms: _164  and  _166
REMARK   66  A    between atoms: _166  and  _167
REMARK   67  A    between atoms: _166  and  _169
REMARK   68  A    between atoms: _169  and  _170
REMARK   69  A    between atoms: _173  and  _175
REMARK   70  A    between atoms: _175  and  _176
REMARK   71  A    between atoms: _175  and  _178
REMARK   72  A    between atoms: _178  and  _179
REMARK   73  A    between atoms: _181  and  _183
REMARK   74  A    between atoms: _183  and  _184
REMARK   75  A    between atoms: _183  and  _186
REMARK   76  A    between atoms: _186  and  _187
REMARK   77  A    between atoms: _187  and  _188
REMARK   78  A    between atoms: _188  and  _189
REMARK   79  A    between atoms: _198  and  _200
REMARK   80  A    between atoms: _200  and  _201
REMARK   81  A    between atoms: _200  and  _203
REMARK   82  A    between atoms: _203  and  _204
REMARK   83  A    between atoms: _209  and  _211
REMARK   84  A    between atoms: _211  and  _212
REMARK   85  A    between atoms: _211  and  _214
REMARK   86  A    between atoms: _214  and  _215
REMARK   87  A    between atoms: _215  and  _216
REMARK   88  A    between atoms: _216  and  _217
REMARK   89  A    between atoms: _226  and  _228
REMARK   90  A    between atoms: _228  and  _229
REMARK   91  A    between atoms: _228  and  _231
REMARK   92  A    between atoms: _231  and  _232
REMARK   93  A    between atoms: _235  and  _237
REMARK   94  A    between atoms: _237  and  _238
REMARK   95  A    between atoms: _240  and  _242
REMARK   96  A    between atoms: _242  and  _243
REMARK   97  A    between atoms: _242  and  _245
REMARK   98  A    between atoms: _245  and  _246
REMARK   99  A    between atoms: _248  and  _250
REMARK  100  A    between atoms: _250  and  _251
REMARK  101  A    between atoms: _250  and  _253
REMARK  102  A    between atoms: _253  and  _254
REMARK  103  A    between atoms: _259  and  _261
REMARK  104  A    between atoms: _261  and  _262
REMARK  105  A    between atoms: _261  and  _264
REMARK  106  A    between atoms: _264  and  _265
REMARK  107  A    between atoms: _265  and  _266
REMARK  108  A    between atoms: _266  and  _267
REMARK  109  A    between atoms: _276  and  _278
REMARK  110  A    between atoms: _278  and  _279
REMARK  111  A    between atoms: _278  and  _281
REMARK  112  A    between atoms: _281  and  _282
REMARK  113  A    between atoms: _285  and  _287
REMARK  114  A    between atoms: _287  and  _288
REMARK  115  A    between atoms: _290  and  _292
REMARK  116  A    between atoms: _292  and  _293
REMARK  117  A    between atoms: _292  and  _295
REMARK  118  A    between atoms: _298  and  _300
REMARK  119  A    between atoms: _300  and  _301
REMARK  120  A    between atoms: _303  and  _305
REMARK  121  A    between atoms: _305  and  _306
REMARK  122  A    between atoms: _308  and  _310
REMARK  123  A    between atoms: _310  and  _311
REMARK  124  A    between atoms: _310  and  _313
REMARK  125  A    between atoms: _313  and  _314
REMARK  126  A    between atoms: _320  and  _322
REMARK  127  A    between atoms: _322  and  _323
REMARK  128  A    between atoms: _322  and  _325
REMARK  129  A    between atoms: _325  and  _326
REMARK  130  A    between atoms: _329  and  _331
REMARK  131  A    between atoms: _331  and  _332
REMARK  132  A    between atoms: _334  and  _336
REMARK  133  A    between atoms: _336  and  _337
REMARK  134  A    between atoms: _336  and  _339
REMARK  135  A    between atoms: _339  and  _340
REMARK  136  A    between atoms: _345  and  _347
REMARK  137  A    between atoms: _347  and  _348
REMARK  138  A    between atoms: _347  and  _350
REMARK  139  A    between atoms: _350  and  _351
REMARK  140  A    between atoms: _351  and  _352
REMARK  141  A    between atoms: _352  and  _353
REMARK  142  A    between atoms: _362  and  _364
REMARK  143  A    between atoms: _364  and  _365
REMARK  144  A    between atoms: _364  and  _367
REMARK  145  A    between atoms: _367  and  _368
REMARK  146  A    between atoms: _371  and  _373
REMARK  147  A    between atoms: _373  and  _374
REMARK  148  A    between atoms: _373  and  _376
REMARK  149  A    between atoms: _376  and  _377
REMARK  150  A    between atoms: _377  and  _378
REMARK  151  A    between atoms: _378  and  _379
REMARK  152  A    between atoms: _388  and  _390
REMARK  153  A    between atoms: _390  and  _391
REMARK  154  A    between atoms: _390  and  _393
REMARK  155  A    between atoms: _393  and  _394
REMARK  156  A    between atoms: _396  and  _398
REMARK  157  A    between atoms: _398  and  _399
REMARK  158  A    between atoms: _401  and  _403
REMARK  159  A    between atoms: _403  and  _404
REMARK  160  A    between atoms: _407  and  _409
REMARK  161  A    between atoms: _409  and  _410
REMARK  162  A    between atoms: _412  and  _414
REMARK  163  A    between atoms: _414  and  _415
REMARK  164  A    between atoms: _414  and  _417
REMARK  165  A    between atoms: _417  and  _418
REMARK  166  A    between atoms: _423  and  _424
REMARK  167  A    between atoms: _426  and  _428
REMARK  168  A    between atoms: _428  and  _429
REMARK  169  A    between atoms: _428  and  _431
REMARK  170  A    between atoms: _431  and  _432
REMARK  171  A    between atoms: _435  and  _437
REMARK  172  A    between atoms: _437  and  _438
REMARK  173  A    between atoms: _440  and  _442
REMARK  174  A    between atoms: _442  and  _443
REMARK  175  A    between atoms: _442  and  _445
REMARK  176  A    between atoms: _445  and  _446
REMARK  177  A    between atoms: _446  and  _447
REMARK  178  A    between atoms: _452  and  _454
REMARK  179  A    between atoms: _454  and  _455
REMARK  180  A    between atoms: _454  and  _457
REMARK  181  A    between atoms: _457  and  _458
REMARK  182  A    between atoms: _461  and  _463
REMARK  183  A    between atoms: _463  and  _464
REMARK  184  A    between atoms: _463  and  _466
REMARK  185  A    between atoms: _466  and  _467
REMARK  186  A    between atoms: _467  and  _468
REMARK  187  A    between atoms: _473  and  _475
REMARK  188  A    between atoms: _475  and  _476
REMARK  189  A    between atoms: _475  and  _478
REMARK  190  A    between atoms: _478  and  _479
REMARK  191  A    between atoms: _482  and  _484
REMARK  192  A    between atoms: _484  and  _485
REMARK  193  A    between atoms: _484  and  _487
REMARK  194  A    between atoms: _487  and  _488
REMARK  195  A    between atoms: _488  and  _489
REMARK  196  A    between atoms: _489  and  _490
REMARK  197  A    between atoms: _499  and  _501
REMARK  198  A    between atoms: _501  and  _502
REMARK  199  A    between atoms: _501  and  _504
REMARK  200  A    between atoms: _504  and  _505
REMARK  201  A    between atoms: _507  and  _509
REMARK  202  A    between atoms: _509  and  _510
REMARK  203  A    between atoms: _513  and  _515
REMARK  204  A    between atoms: _515  and  _516
REMARK  205  A    between atoms: _515  and  _518
REMARK  206  A    between atoms: _518  and  _519
REMARK  207  A    between atoms: _522  and  _524
REMARK  208  A    between atoms: _524  and  _525
REMARK  209  A    between atoms: _527  and  _529
REMARK  210  A    between atoms: _529  and  _530
REMARK  211  A    between atoms: _529  and  _532
REMARK  212  A    between atoms: _532  and  _533
REMARK  213  A    between atoms: _538  and  _539
REMARK  214  A    between atoms: _541  and  _543
REMARK  215  A    between atoms: _543  and  _544
REMARK  216  A    between atoms: _543  and  _546
REMARK  217  A    between atoms: _546  and  _547
REMARK  218  A    between atoms: _550  and  _552
REMARK  219  A    between atoms: _552  and  _553
REMARK  220  A    between atoms: _555  and  _557
REMARK  221  A    between atoms: _557  and  _558
REMARK  222  A    between atoms: _557  and  _560
REMARK  223  A    between atoms: _560  and  _561
REMARK  224  A    between atoms: _566  and  _568
REMARK  225  A    between atoms: _568  and  _569
REMARK  226  A    between atoms: _568  and  _571
REMARK  227  A    between atoms: _571  and  _572
REMARK  228  A    between atoms: _575  and  _577
REMARK  229  A    between atoms: _577  and  _578
REMARK  230  A    between atoms: _577  and  _580
REMARK  231  A    between atoms: _580  and  _581
REMARK  232  A    between atoms: _587  and  _589
REMARK  233  A    between atoms: _589  and  _590
REMARK  234  A    between atoms: _589  and  _592
REMARK  235  A    between atoms: _592  and  _593
REMARK  236  A    between atoms: _593  and  _594
REMARK  237  A    between atoms: _594  and  _595
REMARK  238  A    between atoms: _604  and  _606
REMARK  239  A    between atoms: _606  and  _607
REMARK  240  A    between atoms: _606  and  _609
REMARK  241  A    between atoms: _609  and  _610
REMARK  242  A    between atoms: _612  and  _614
REMARK  243  A    between atoms: _614  and  _615
REMARK  244  A    between atoms: _617  and  _619
REMARK  245  A    between atoms: _619  and  _620
REMARK  246  A    between atoms: _619  and  _622
REMARK                            x       y       z     vdW  Elec       q    Type
REMARK                         _______ _______ _______ _____ _____    ______ ____
ROOT
ATOM      1  C   ASN A   2       3.030   0.212 -13.742  0.00  0.00    +0.241 C 
ATOM      2  O   ASN A   2       2.723  -0.961 -13.535  0.00  0.00    -0.273 OA
ATOM      3  N   ARG A   3       2.530   0.925 -14.745  0.00  0.00    -0.297 N 
ATOM      4  H   ARG A   3       2.868   1.896 -14.900  0.00  0.00    +0.150 HD
ENDROOT
BRANCH   1   5
ATOM      5  CA  ASN A   2       4.031   0.917 -12.838  0.00  0.00    +0.158 C 
BRANCH   5   8
ATOM      6  C   ARG A   1       3.197   0.805 -10.553  0.00  0.00    +0.238 C 
ATOM      7  O   ARG A   1       2.497   1.806 -10.702  0.00  0.00    -0.274 OA
ATOM      8  N   ASN A   2       4.003   0.336 -11.501  0.00  0.00    -0.297 N 
ATOM      9  H   ASN A   2       4.629  -0.465 -11.283  0.00  0.00    +0.150 HD
BRANCH   6  10
ATOM     10  CA  ARG A   1       3.181   0.032  -9.239  0.00  0.00    +0.145 C 
BRANCH  10  11
ATOM     11  N   ARG A   1       4.077   0.629  -8.256  0.00  0.00    -0.238 NA
ATOM     12  H   ARG A   1       4.081   1.662  -8.132  0.00  0.00    +0.142 HD
ENDBRANCH  10  11
BRANCH  10  13
ATOM     13  CB  ARG A   1       1.753  -0.031  -8.693  0.00  0.00    +0.030 C 
BRANCH  13  14
ATOM     14  CG  ARG A   1       1.607  -0.810  -7.392  0.00  0.00    +0.045 C 
BRANCH  14  15
ATOM     15  CD  ARG A   1       0.165  -0.798  -6.907  0.00  0.00    +0.174 C 
BRANCH  15  16
ATOM     16  NE  ARG A   1      -0.019  -1.579  -5.686  0.00  0.00    -0.265 N 
ATOM     17  HE  ARG A   1       0.064  -1.084  -4.775  0.00  0.00    +0.259 HD
ATOM     18  CZ  ARG A   1      -0.286  -2.882  -5.664  0.00  0.00    +0.342 C 
ATOM     19  NH2 ARG A   1      -0.438  -3.511  -4.505  0.00  0.00    -0.292 N 
ATOM     20 HH21 ARG A   1      -0.348  -2.985  -3.612  0.00  0.00    +0.255 HD
ATOM     21 HH22 ARG A   1      -0.647  -4.530  -4.490  0.00  0.00    +0.255 HD
ATOM     22  NH1 ARG A   1      -0.396  -3.561  -6.798  0.00  0.00    -0.292 N 
ATOM     23 HH11 ARG A   1      -0.605  -4.580  -6.776  0.00  0.00    +0.255 HD
ATOM     24 HH12 ARG A   1      -0.273  -3.075  -7.709  0.00  0.00    +0.255 HD
ENDBRANCH  15  16
ENDBRANCH  14  15
ENDBRANCH  13  14
ENDBRANCH  10  13
ENDBRANCH   6  10
ENDBRANCH   5   8
BRANCH   5  25
ATOM     25  CB  ASN A   2       5.434   0.826 -13.441  0.00  0.00    +0.114 C 
BRANCH  25  26
ATOM     26  CG  ASN A   2       5.528   1.500 -14.798  0.00  0.00    +0.222 C 
ATOM     27  OD1 ASN A   2       4.848   2.494 -15.060  0.00  0.00    -0.275 OA
ATOM     28  ND2 ASN A   2       6.372   0.957 -15.671  0.00  0.00    -0.329 N 
ATOM     29 HD21 ASN A   2       6.926   0.118 -15.406  0.00  0.00    +0.145 HD
ATOM     30 HD22 ASN A   2       6.478   1.372 -16.619  0.00  0.00    +0.145 HD
ENDBRANCH  25  26
ENDBRANCH   5  25
ENDBRANCH   1   5
BRANCH   3  31
ATOM     31  CA  ARG A   3       1.516   0.370 -15.632  0.00  0.00    +0.149 C 
BRANCH  31  32
ATOM     32  C   ARG A   3       0.336  -0.089 -14.790  0.00  0.00    +0.241 C 
ATOM     33  N   ILE A   4      -0.154   0.840 -13.976  0.00  0.00    -0.298 N 
ATOM     34  H   ILE A   4       0.189   1.816 -14.084  0.00  0.00    +0.150 HD
ATOM     35  O   ARG A   3      -0.120  -1.228 -14.885  0.00  0.00    -0.273 OA
BRANCH  33  36
ATOM     36  CA  ILE A   4      -1.142   0.572 -12.942  0.00  0.00    +0.137 C 
BRANCH  36  37
ATOM     37  CB  ILE A   4      -0.912   1.525 -11.747  0.00  0.00    +0.026 C 
ATOM     38  CG2 ILE A   4      -1.191   2.963 -12.151  0.00  0.00    +0.002 C 
BRANCH  37  39
ATOM     39  CG1 ILE A   4      -1.763   1.124 -10.541  0.00  0.00    +0.002 C 
ATOM     40  CD1 ILE A   4      -1.537   2.011  -9.328  0.00  0.00    +0.000 C 
ENDBRANCH  37  39
ENDBRANCH  36  37
BRANCH  36  41
ATOM     41  C   ILE A   4      -2.581   0.734 -13.433  0.00  0.00    +0.227 C 
ATOM     42  O   ILE A   4      -2.838   1.386 -14.447  0.00  0.00    -0.286 OA
ENDBRANCH  36  41
ENDBRANCH  33  36
ENDBRANCH  31  32
BRANCH  31  43
ATOM     43  CB  ARG A   3       2.102  -0.772 -16.460  0.00  0.00    +0.033 C 
BRANCH  43  44
ATOM     44  CG  ARG A   3       3.221  -0.304 -17.383  0.00  0.00    +0.045 C 
BRANCH  44  45
ATOM     45  CD  ARG A   3       3.913  -1.449 -18.093  0.00  0.00    +0.174 C 
BRANCH  45  46
ATOM     46  NE  ARG A   3       5.013  -0.969 -18.924  0.00  0.00    -0.265 N 
ATOM     47  HE  ARG A   3       5.131   0.059 -19.027  0.00  0.00    +0.259 HD
ATOM     48  CZ  ARG A   3       5.873  -1.760 -19.557  0.00  0.00    +0.342 C 
ATOM     49  NH2 ARG A   3       5.767  -3.078 -19.455  0.00  0.00    -0.292 N 
ATOM     50 HH21 ARG A   3       5.009  -3.496 -18.878  0.00  0.00    +0.255 HD
ATOM     51 HH22 ARG A   3       6.442  -3.694 -19.952  0.00  0.00    +0.255 HD
ATOM     52  NH1 ARG A   3       6.843  -1.232 -20.291  0.00  0.00    -0.292 N 
ATOM     53 HH11 ARG A   3       6.931  -0.199 -20.371  0.00  0.00    +0.255 HD
ATOM     54 HH12 ARG A   3       7.516  -1.851 -20.786  0.00  0.00    +0.255 HD
ENDBRANCH  45  46
ENDBRANCH  44  45
ENDBRANCH  43  44
ENDBRANCH  31  43
ENDBRANCH   3  31
TORSDOF 20
REMARK  Name = ../refined-set-2016/4xmb/4xmb_pocket.pdb
REMARK  246 active torsions:
REMARK  status: ('A' for Active; 'I' for Inactive)
REMARK    1  A    between atoms: _1  and  _3
REMARK    2  A    between atoms: _3  and  _4
REMARK    3  A    between atoms: _6  and  _8
REMARK    4  A    between atoms: _8  and  _9
REMARK    5  A    between atoms: _8  and  _11
REMARK    6  A    between atoms: _11  and  _12
REMARK    7  A    between atoms: _17  and  _18
REMARK    8  A    between atoms: _20  and  _22
REMARK    9  A    between atoms: _22  and  _23
REMARK   10  A    between atoms: _22  and  _25
REMARK   11  A    between atoms: _25  and  _26
REMARK   12  A    between atoms: _32  and  _34
REMARK   13  A    between atoms: _34  and  _35
REMARK   14  A    between atoms: _34  and  _37
REMARK   15  A    between atoms: _37  and  _38
REMARK   16  A    between atoms: _38  and  _39
REMARK   17  A    between atoms: _39  and  _40
REMARK   18  A    between atoms: _49  and  _51
REMARK   19  A    between atoms: _51  and  _52
REMARK   20  A    between atoms: _51  and  _54
REMARK   21  A    between atoms: _54  and  _55
REMARK   22  A    between atoms: _55  and  _56
REMARK   23  A    between atoms: _61  and  _63
REMARK   24  A    between atoms: _63  and  _64
REMARK   25  A    between atoms: _63  and  _66
REMARK   26  A    between atoms: _66  and  _67
REMARK   27  A    between atoms: _69  and  _71
REMARK   28  A    between atoms: _71  and  _72
REMARK   29  A    between atoms: _71  and  _74
REMARK   30  A    between atoms: _74  and  _75
REMARK   31  A    between atoms: _78  and  _80
REMARK   32  A    between atoms: _80  and  _81
REMARK   33  A    between atoms: _80  and  _83
REMARK   34  A    between atoms: _83  and  _84
REMARK   35  A    between atoms: _84  and  _85
REMARK   36  A    between atoms: _85  and  _86
REMARK   37  A    between atoms: _95  and  _97
REMARK   38  A    between atoms: _97  and  _98
REMARK   39  A    between atoms: _97  and  _100
REMARK   40  A    between atoms: _100  and  _101
REMARK   41  A    between atoms: _103  and  _105
REMARK   42  A    between atoms: _105  and  _106
REMARK   43  A    between atoms: _108  and  _110
REMARK   44  A    between atoms: _110  and  _111
REMARK   45  A    between atoms: _110  and  _113
REMARK   46  A    between atoms: _113  and  _114
REMARK   47  A    between atoms: _117  and  _119
REMARK   48  A    between atoms: _119  and  _120
REMARK   49  A    between atoms: _122  and  _124
REMARK   50  A    between atoms: _124  and  _125
REMARK   51  A    between atoms: _127  and  _129
REMARK   52  A    between atoms: _129  and  _130
REMARK   53  A    between atoms: _129  and  _132
REMARK   54  A    between atoms: _132  and  _133
REMARK   55  A    between atoms: _133  and  _134
REMARK   56  A    between atoms: _134  and  _135
REMARK   57  A    between atoms: _144  and  _146
REMARK   58  A    between atoms: _146  and  _147
REMARK   59  A    between atoms: _146  and  _149
REMARK   60  A    between atoms: _149  and  _150
REMARK   61  A    between atoms: _155  and  _157
REMARK   62  A    between atoms: _157  and  _158
REMARK   63  A    between atoms: _157  and  _160
REMARK   64  A    between atoms: _160  and  _161
REMARK   65  A    between atoms: _164  and  _166
REMARK   66  A    between atoms: _166  and  _167
REMARK   67  A    between atoms: _166  and  _169
REMARK   68  A    between atoms: _169  and  _170
REMARK   69  A    between atoms: _173  and  _175
REMARK   70  A    between atoms: _175  and  _176
REMARK   71  A    between atoms: _175  and  _178
REMARK   72  A    between atoms: _178  and  _179
REMARK   73  A    between atoms: _181  and  _183
REMARK   74  A    between atoms: _183  and  _184
REMARK   75  A    between atoms: _183  and  _186
REMARK   76  A    between atoms: _186  and  _187
REMARK   77  A    between atoms: _187  and  _188
REMARK   78  A    between atoms: _188  and  _189
REMARK   79  A    between atoms: _198  and  _200
REMARK   80  A    between atoms: _200  and  _201
REMARK   81  A    between atoms: _200  and  _203
REMARK   82  A    between atoms: _203  and  _204
REMARK   83  A    between atoms: _209  and  _211
REMARK   84  A    between atoms: _211  and  _212
REMARK   85  A    between atoms: _211  and  _214
REMARK   86  A    between atoms: _214  and  _215
REMARK   87  A    between atoms: _215  and  _216
REMARK   88  A    between atoms: _216  and  _217
REMARK   89  A    between atoms: _226  and  _228
REMARK   90  A    between atoms: _228  and  _229
REMARK   91  A    between atoms: _228  and  _231
REMARK   92  A    between atoms: _231  and  _232
REMARK   93  A    between atoms: _235  and  _237
REMARK   94  A    between atoms: _237  and  _238
REMARK   95  A    between atoms: _240  and  _242
REMARK   96  A    between atoms: _242  and  _243
REMARK   97  A    between atoms: _242  and  _245
REMARK   98  A    between atoms: _245  and  _246
REMARK   99  A    between atoms: _248  and  _250
REMARK  100  A    between atoms: _250  and  _251
REMARK  101  A    between atoms: _250  and  _253
REMARK  102  A    between atoms: _253  and  _254
REMARK  103  A    between atoms: _259  and  _261
REMARK  104  A    between atoms: _261  and  _262
REMARK  105  A    between atoms: _261  and  _264
REMARK  106  A    between atoms: _264  and  _265
REMARK  107  A    between atoms: _265  and  _266
REMARK  108  A    between atoms: _266  and  _267
REMARK  109  A    between atoms: _276  and  _278
REMARK  110  A    between atoms: _278  and  _279
REMARK  111  A    between atoms: _278  and  _281
REMARK  112  A    between atoms: _281  and  _282
REMARK  113  A    between atoms: _285  and  _287
REMARK  114  A    between atoms: _287  and  _288
REMARK  115  A    between atoms: _290  and  _292
REMARK  116  A    between atoms: _292  and  _293
REMARK  117  A    between atoms: _292  and  _295
REMARK  118  A    between atoms: _298  and  _300
REMARK  119  A    between atoms: _300  and  _301
REMARK  120  A    between atoms: _303  and  _305
REMARK  121  A    between atoms: _305  and  _306
REMARK  122  A    between atoms: _308  and  _310
REMARK  123  A    between atoms: _310  and  _311
REMARK  124  A    between atoms: _310  and  _313
REMARK  125  A    between atoms: _313  and  _314
REMARK  126  A    between atoms: _320  and  _322
REMARK  127  A    between atoms: _322  and  _323
REMARK  128  A    between atoms: _322  and  _325
REMARK  129  A    between atoms: _325  and  _326
REMARK  130  A    between atoms: _329  and  _331
REMARK  131  A    between atoms: _331  and  _332
REMARK  132  A    between atoms: _334  and  _336
REMARK  133  A    between atoms: _336  and  _337
REMARK  134  A    between atoms: _336  and  _339
REMARK  135  A    between atoms: _339  and  _340
REMARK  136  A    between atoms: _345  and  _347
REMARK  137  A    between atoms: _347  and  _348
REMARK  138  A    between atoms: _347  and  _350
REMARK  139  A    between atoms: _350  and  _351
REMARK  140  A    between atoms: _351  and  _352
REMARK  141  A    between atoms: _352  and  _353
REMARK  142  A    between atoms: _362  and  _364
REMARK  143  A    between atoms: _364  and  _365
REMARK  144  A    between atoms: _364  and  _367
REMARK  145  A    between atoms: _367  and  _368
REMARK  146  A    between atoms: _371  and  _373
REMARK  147  A    between atoms: _373  and  _374
REMARK  148  A    between atoms: _373  and  _376
REMARK  149  A    between atoms: _376  and  _377
REMARK  150  A    between atoms: _377  and  _378
REMARK  151  A    between atoms: _378  and  _379
REMARK  152  A    between atoms: _388  and  _390
REMARK  153  A    between atoms: _390  and  _391
REMARK  154  A    between atoms: _390  and  _393
REMARK  155  A    between atoms: _393  and  _394
REMARK  156  A    between atoms: _396  and  _398
REMARK  157  A    between atoms: _398  and  _399
REMARK  158  A    between atoms: _401  and  _403
REMARK  159  A    between atoms: _403  and  _404
REMARK  160  A    between atoms: _407  and  _409
REMARK  161  A    between atoms: _409  and  _410
REMARK  162  A    between atoms: _412  and  _414
REMARK  163  A    between atoms: _414  and  _415
REMARK  164  A    between atoms: _414  and  _417
REMARK  165  A    between atoms: _417  and  _418
REMARK  166  A    between atoms: _423  and  _424
REMARK  167  A    between atoms: _426  and  _428
REMARK  168  A    between atoms: _428  and  _429
REMARK  169  A    between atoms: _428  and  _431
REMARK  170  A    between atoms: _431  and  _432
REMARK  171  A    between atoms: _435  and  _437
REMARK  172  A    between atoms: _437  and  _438
REMARK  173  A    between atoms: _440  and  _442
REMARK  174  A    between atoms: _442  and  _443
REMARK  175  A    between atoms: _442  and  _445
REMARK  176  A    between atoms: _445  and  _446
REMARK  177  A    between atoms: _446  and  _447
REMARK  178  A    between atoms: _452  and  _454
REMARK  179  A    between atoms: _454  and  _455
REMARK  180  A    between atoms: _454  and  _457
REMARK  181  A    between atoms: _457  and  _458
REMARK  182  A    between atoms: _461  and  _463
REMARK  183  A    between atoms: _463  and  _464
REMARK  184  A    between atoms: _463  and  _466
REMARK  185  A    between atoms: _466  and  _467
REMARK  186  A    between atoms: _467  and  _468
REMARK  187  A    between atoms: _473  and  _475
REMARK  188  A    between atoms: _475  and  _476
REMARK  189  A    between atoms: _475  and  _478
REMARK  190  A    between atoms: _478  and  _479
REMARK  191  A    between atoms: _482  and  _484
REMARK  192  A    between atoms: _484  and  _485
REMARK  193  A    between atoms: _484  and  _487
REMARK  194  A    between atoms: _487  and  _488
REMARK  195  A    between atoms: _488  and  _489
REMARK  196  A    between atoms: _489  and  _490
REMARK  197  A    between atoms: _499  and  _501
REMARK  198  A    between atoms: _501  and  _502
REMARK  199  A    between atoms: _501  and  _504
REMARK  200  A    between atoms: _504  and  _505
REMARK  201  A    between atoms: _507  and  _509
REMARK  202  A    between atoms: _509  and  _510
REMARK  203  A    between atoms: _513  and  _515
REMARK  204  A    between atoms: _515  and  _516
REMARK  205  A    between atoms: _515  and  _518
REMARK  206  A    between atoms: _518  and  _519
REMARK  207  A    between atoms: _522  and  _524
REMARK  208  A    between atoms: _524  and  _525
REMARK  209  A    between atoms: _527  and  _529
REMARK  210  A    between atoms: _529  and  _530
REMARK  211  A    between atoms: _529  and  _532
REMARK  212  A    between atoms: _532  and  _533
REMARK  213  A    between atoms: _538  and  _539
REMARK  214  A    between atoms: _541  and  _543
REMARK  215  A    between atoms: _543  and  _544
REMARK  216  A    between atoms: _543  and  _546
REMARK  217  A    between atoms: _546  and  _547
REMARK  218  A    between atoms: _550  and  _552
REMARK  219  A    between atoms: _552  and  _553
REMARK  220  A    between atoms: _555  and  _557
REMARK  221  A    between atoms: _557  and  _558
REMARK  222  A    between atoms: _557  and  _560
REMARK  223  A    between atoms: _560  and  _561
REMARK  224  A    between atoms: _566  and  _568
REMARK  225  A    between atoms: _568  and  _569
REMARK  226  A    between atoms: _568  and  _571
REMARK  227  A    between atoms: _571  and  _572
REMARK  228  A    between atoms: _575  and  _577
REMARK  229  A    between atoms: _577  and  _578
REMARK  230  A    between atoms: _577  and  _580
REMARK  231  A    between atoms: _580  and  _581
REMARK  232  A    between atoms: _587  and  _589
REMARK  233  A    between atoms: _589  and  _590
REMARK  234  A    between atoms: _589  and  _592
REMARK  235  A    between atoms: _592  and  _593
REMARK  236  A    between atoms: _593  and  _594
REMARK  237  A    between atoms: _594  and  _595
REMARK  238  A    between atoms: _604  and  _606
REMARK  239  A    between atoms: _606  and  _607
REMARK  240  A    between atoms: _606  and  _609
REMARK  241  A    between atoms: _609  and  _610
REMARK  242  A    between atoms: _612  and  _614
REMARK  243  A    between atoms: _614  and  _615
REMARK  244  A    between atoms: _617  and  _619
REMARK  245  A    between atoms: _619  and  _620
REMARK  246  A    between atoms: _619  and  _622
REMARK                            x       y       z     vdW  Elec       q    Type
REMARK                         _______ _______ _______ _____ _____    ______ ____
ROOT
ATOM      1  C   GLY A   1       2.388  -3.804 -11.965  0.00  0.00    +0.240 C 
ATOM      2  O   GLY A   1       2.330  -5.011 -11.734  0.00  0.00    -0.274 OA
ATOM      3  N   SER A   2       3.536  -3.146 -12.050  0.00  0.00    -0.296 N 
ATOM      4  H   SER A   2       3.531  -2.117 -12.199  0.00  0.00    +0.150 HD
ENDROOT
BRANCH   1   5
ATOM      5  CA  GLY A   1       1.127  -2.989 -12.160  0.00  0.00    +0.169 C 
BRANCH   5   6
ATOM      6  N   GLY A   1      -0.038  -3.791 -11.847  0.00  0.00    -0.236 NA
ATOM      7  H   GLY A   1      -0.525  -4.303 -12.610  0.00  0.00    +0.142 HD
ENDBRANCH   5   6
ENDBRANCH   1   5
BRANCH   3   8
ATOM      8  CA  SER A   2       4.800  -3.851 -11.937  0.00  0.00    +0.166 C 
BRANCH   8   9
ATOM      9  CB  SER A   2       5.825  -3.076 -11.122  0.00  0.00    +0.229 C 
ATOM     10  OG  SER A   2       5.793  -1.846 -11.057  0.00  0.00    -0.286 OA
ENDBRANCH   8   9
BRANCH   8  11
ATOM     11  C   SER A   2       5.366  -4.150 -13.328  0.00  0.00    +0.165 C 
BRANCH  11  12
ATOM     12  O   SER A   2       5.663  -2.949 -14.019  0.00  0.00    -0.380 OA
ATOM     13  H   SER A   2       6.333  -2.431 -13.506  0.00  0.00    +0.211 HD
ENDBRANCH  11  12
ENDBRANCH   8  11
ENDBRANCH   3   8
TORSDOF 6
REMARK  Name = ../refined-set-2016/4xmb/4xmb_pocket.pdb
REMARK  246 active torsions:
REMARK  status: ('A' for Active; 'I' for Inactive)
REMARK    1  A    between atoms: _1  and  _3
REMARK    2  A    between atoms: _3  and  _4
REMARK    3  A    between atoms: _6  and  _8
REMARK    4  A    between atoms: _8  and  _9
REMARK    5  A    between atoms: _8  and  _11
REMARK    6  A    between atoms: _11  and  _12
REMARK    7  A    between atoms: _17  and  _18
REMARK    8  A    between atoms: _20  and  _22
REMARK    9  A    between atoms: _22  and  _23
REMARK   10  A    between atoms: _22  and  _25
REMARK   11  A    between atoms: _25  and  _26
REMARK   12  A    between atoms: _32  and  _34
REMARK   13  A    between atoms: _34  and  _35
REMARK   14  A    between atoms: _34  and  _37
REMARK   15  A    between atoms: _37  and  _38
REMARK   16  A    between atoms: _38  and  _39
REMARK   17  A    between atoms: _39  and  _40
REMARK   18  A    between atoms: _49  and  _51
REMARK   19  A    between atoms: _51  and  _52
REMARK   20  A    between atoms: _51  and  _54
REMARK   21  A    between atoms: _54  and  _55
REMARK   22  A    between atoms: _55  and  _56
REMARK   23  A    between atoms: _61  and  _63
REMARK   24  A    between atoms: _63  and  _64
REMARK   25  A    between atoms: _63  and  _66
REMARK   26  A    between atoms: _66  and  _67
REMARK   27  A    between atoms: _69  and  _71
REMARK   28  A    between atoms: _71  and  _72
REMARK   29  A    between atoms: _71  and  _74
REMARK   30  A    between atoms: _74  and  _75
REMARK   31  A    between atoms: _78  and  _80
REMARK   32  A    between atoms: _80  and  _81
REMARK   33  A    between atoms: _80  and  _83
REMARK   34  A    between atoms: _83  and  _84
REMARK   35  A    between atoms: _84  and  _85
REMARK   36  A    between atoms: _85  and  _86
REMARK   37  A    between atoms: _95  and  _97
REMARK   38  A    between atoms: _97  and  _98
REMARK   39  A    between atoms: _97  and  _100
REMARK   40  A    between atoms: _100  and  _101
REMARK   41  A    between atoms: _103  and  _105
REMARK   42  A    between atoms: _105  and  _106
REMARK   43  A    between atoms: _108  and  _110
REMARK   44  A    between atoms: _110  and  _111
REMARK   45  A    between atoms: _110  and  _113
REMARK   46  A    between atoms: _113  and  _114
REMARK   47  A    between atoms: _117  and  _119
REMARK   48  A    between atoms: _119  and  _120
REMARK   49  A    between atoms: _122  and  _124
REMARK   50  A    between atoms: _124  and  _125
REMARK   51  A    between atoms: _127  and  _129
REMARK   52  A    between atoms: _129  and  _130
REMARK   53  A    between atoms: _129  and  _132
REMARK   54  A    between atoms: _132  and  _133
REMARK   55  A    between atoms: _133  and  _134
REMARK   56  A    between atoms: _134  and  _135
REMARK   57  A    between atoms: _144  and  _146
REMARK   58  A    between atoms: _146  and  _147
REMARK   59  A    between atoms: _146  and  _149
REMARK   60  A    between atoms: _149  and  _150
REMARK   61  A    between atoms: _155  and  _157
REMARK   62  A    between atoms: _157  and  _158
REMARK   63  A    between atoms: _157  and  _160
REMARK   64  A    between atoms: _160  and  _161
REMARK   65  A    between atoms: _164  and  _166
REMARK   66  A    between atoms: _166  and  _167
REMARK   67  A    between atoms: _166  and  _169
REMARK   68  A    between atoms: _169  and  _170
REMARK   69  A    between atoms: _173  and  _175
REMARK   70  A    between atoms: _175  and  _176
REMARK   71  A    between atoms: _175  and  _178
REMARK   72  A    between atoms: _178  and  _179
REMARK   73  A    between atoms: _181  and  _183
REMARK   74  A    between atoms: _183  and  _184
REMARK   75  A    between atoms: _183  and  _186
REMARK   76  A    between atoms: _186  and  _187
REMARK   77  A    between atoms: _187  and  _188
REMARK   78  A    between atoms: _188  and  _189
REMARK   79  A    between atoms: _198  and  _200
REMARK   80  A    between atoms: _200  and  _201
REMARK   81  A    between atoms: _200  and  _203
REMARK   82  A    between atoms: _203  and  _204
REMARK   83  A    between atoms: _209  and  _211
REMARK   84  A    between atoms: _211  and  _212
REMARK   85  A    between atoms: _211  and  _214
REMARK   86  A    between atoms: _214  and  _215
REMARK   87  A    between atoms: _215  and  _216
REMARK   88  A    between atoms: _216  and  _217
REMARK   89  A    between atoms: _226  and  _228
REMARK   90  A    between atoms: _228  and  _229
REMARK   91  A    between atoms: _228  and  _231
REMARK   92  A    between atoms: _231  and  _232
REMARK   93  A    between atoms: _235  and  _237
REMARK   94  A    between atoms: _237  and  _238
REMARK   95  A    between atoms: _240  and  _242
REMARK   96  A    between atoms: _242  and  _243
REMARK   97  A    between atoms: _242  and  _245
REMARK   98  A    between atoms: _245  and  _246
REMARK   99  A    between atoms: _248  and  _250
REMARK  100  A    between atoms: _250  and  _251
REMARK  101  A    between atoms: _250  and  _253
REMARK  102  A    between atoms: _253  and  _254
REMARK  103  A    between atoms: _259  and  _261
REMARK  104  A    between atoms: _261  and  _262
REMARK  105  A    between atoms: _261  and  _264
REMARK  106  A    between atoms: _264  and  _265
REMARK  107  A    between atoms: _265  and  _266
REMARK  108  A    between atoms: _266  and  _267
REMARK  109  A    between atoms: _276  and  _278
REMARK  110  A    between atoms: _278  and  _279
REMARK  111  A    between atoms: _278  and  _281
REMARK  112  A    between atoms: _281  and  _282
REMARK  113  A    between atoms: _285  and  _287
REMARK  114  A    between atoms: _287  and  _288
REMARK  115  A    between atoms: _290  and  _292
REMARK  116  A    between atoms: _292  and  _293
REMARK  117  A    between atoms: _292  and  _295
REMARK  118  A    between atoms: _298  and  _300
REMARK  119  A    between atoms: _300  and  _301
REMARK  120  A    between atoms: _303  and  _305
REMARK  121  A    between atoms: _305  and  _306
REMARK  122  A    between atoms: _308  and  _310
REMARK  123  A    between atoms: _310  and  _311
REMARK  124  A    between atoms: _310  and  _313
REMARK  125  A    between atoms: _313  and  _314
REMARK  126  A    between atoms: _320  and  _322
REMARK  127  A    between atoms: _322  and  _323
REMARK  128  A    between atoms: _322  and  _325
REMARK  129  A    between atoms: _325  and  _326
REMARK  130  A    between atoms: _329  and  _331
REMARK  131  A    between atoms: _331  and  _332
REMARK  132  A    between atoms: _334  and  _336
REMARK  133  A    between atoms: _336  and  _337
REMARK  134  A    between atoms: _336  and  _339
REMARK  135  A    between atoms: _339  and  _340
REMARK  136  A    between atoms: _345  and  _347
REMARK  137  A    between atoms: _347  and  _348
REMARK  138  A    between atoms: _347  and  _350
REMARK  139  A    between atoms: _350  and  _351
REMARK  140  A    between atoms: _351  and  _352
REMARK  141  A    between atoms: _352  and  _353
REMARK  142  A    between atoms: _362  and  _364
REMARK  143  A    between atoms: _364  and  _365
REMARK  144  A    between atoms: _364  and  _367
REMARK  145  A    between atoms: _367  and  _368
REMARK  146  A    between atoms: _371  and  _373
REMARK  147  A    between atoms: _373  and  _374
REMARK  148  A    between atoms: _373  and  _376
REMARK  149  A    between atoms: _376  and  _377
REMARK  150  A    between atoms: _377  and  _378
REMARK  151  A    between atoms: _378  and  _379
REMARK  152  A    between atoms: _388  and  _390
REMARK  153  A    between atoms: _390  and  _391
REMARK  154  A    between atoms: _390  and  _393
REMARK  155  A    between atoms: _393  and  _394
REMARK  156  A    between atoms: _396  and  _398
REMARK  157  A    between atoms: _398  and  _399
REMARK  158  A    between atoms: _401  and  _403
REMARK  159  A    between atoms: _403  and  _404
REMARK  160  A    between atoms: _407  and  _409
REMARK  161  A    between atoms: _409  and  _410
REMARK  162  A    between atoms: _412  and  _414
REMARK  163  A    between atoms: _414  and  _415
REMARK  164  A    between atoms: _414  and  _417
REMARK  165  A    between atoms: _417  and  _418
REMARK  166  A    between atoms: _423  and  _424
REMARK  167  A    between atoms: _426  and  _428
REMARK  168  A    between atoms: _428  and  _429
REMARK  169  A    between atoms: _428  and  _431
REMARK  170  A    between atoms: _431  and  _432
REMARK  171  A    between atoms: _435  and  _437
REMARK  172  A    between atoms: _437  and  _438
REMARK  173  A    between atoms: _440  and  _442
REMARK  174  A    between atoms: _442  and  _443
REMARK  175  A    between atoms: _442  and  _445
REMARK  176  A    between atoms: _445  and  _446
REMARK  177  A    between atoms: _446  and  _447
REMARK  178  A    between atoms: _452  and  _454
REMARK  179  A    between atoms: _454  and  _455
REMARK  180  A    between atoms: _454  and  _457
REMARK  181  A    between atoms: _457  and  _458
REMARK  182  A    between atoms: _461  and  _463
REMARK  183  A    between atoms: _463  and  _464
REMARK  184  A    between atoms: _463  and  _466
REMARK  185  A    between atoms: _466  and  _467
REMARK  186  A    between atoms: _467  and  _468
REMARK  187  A    between atoms: _473  and  _475
REMARK  188  A    between atoms: _475  and  _476
REMARK  189  A    between atoms: _475  and  _478
REMARK  190  A    between atoms: _478  and  _479
REMARK  191  A    between atoms: _482  and  _484
REMARK  192  A    between atoms: _484  and  _485
REMARK  193  A    between atoms: _484  and  _487
REMARK  194  A    between atoms: _487  and  _488
REMARK  195  A    between atoms: _488  and  _489
REMARK  196  A    between atoms: _489  and  _490
REMARK  197  A    between atoms: _499  and  _501
REMARK  198  A    between atoms: _501  and  _502
REMARK  199  A    between atoms: _501  and  _504
REMARK  200  A    between atoms: _504  and  _505
REMARK  201  A    between atoms: _507  and  _509
REMARK  202  A    between atoms: _509  and  _510
REMARK  203  A    between atoms: _513  and  _515
REMARK  204  A    between atoms: _515  and  _516
REMARK  205  A    between atoms: _515  and  _518
REMARK  206  A    between atoms: _518  and  _519
REMARK  207  A    between atoms: _522  and  _524
REMARK  208  A    between atoms: _524  and  _525
REMARK  209  A    between atoms: _527  and  _529
REMARK  210  A    between atoms: _529  and  _530
REMARK  211  A    between atoms: _529  and  _532
REMARK  212  A    between atoms: _532  and  _533
REMARK  213  A    between atoms: _538  and  _539
REMARK  214  A    between atoms: _541  and  _543
REMARK  215  A    between atoms: _543  and  _544
REMARK  216  A    between atoms: _543  and  _546
REMARK  217  A    between atoms: _546  and  _547
REMARK  218  A    between atoms: _550  and  _552
REMARK  219  A    between atoms: _552  and  _553
REMARK  220  A    between atoms: _555  and  _557
REMARK  221  A    between atoms: _557  and  _558
REMARK  222  A    between atoms: _557  and  _560
REMARK  223  A    between atoms: _560  and  _561
REMARK  224  A    between atoms: _566  and  _568
REMARK  225  A    between atoms: _568  and  _569
REMARK  226  A    between atoms: _568  and  _571
REMARK  227  A    between atoms: _571  and  _572
REMARK  228  A    between atoms: _575  and  _577
REMARK  229  A    between atoms: _577  and  _578
REMARK  230  A    between atoms: _577  and  _580
REMARK  231  A    between atoms: _580  and  _581
REMARK  232  A    between atoms: _587  and  _589
REMARK  233  A    between atoms: _589  and  _590
REMARK  234  A    between atoms: _589  and  _592
REMARK  235  A    between atoms: _592  and  _593
REMARK  236  A    between atoms: _593  and  _594
REMARK  237  A    between atoms: _594  and  _595
REMARK  238  A    between atoms: _604  and  _606
REMARK  239  A    between atoms: _606  and  _607
REMARK  240  A    between atoms: _606  and  _609
REMARK  241  A    between atoms: _609  and  _610
REMARK  242  A    between atoms: _612  and  _614
REMARK  243  A    between atoms: _614  and  _615
REMARK  244  A    between atoms: _617  and  _619
REMARK  245  A    between atoms: _619  and  _620
REMARK  246  A    between atoms: _619  and  _622
REMARK                            x       y       z     vdW  Elec       q    Type
REMARK                         _______ _______ _______ _____ _____    ______ ____
ROOT
ATOM      1  CB  HIS A   1       4.069  -9.470 -12.895  0.00  0.00    +0.072 C 
ENDROOT
BRANCH   1   2
ATOM      2  CG  HIS A   1       5.316  -9.669 -13.697  0.00  0.00    +0.082 A 
ATOM      3  CD2 HIS A   1       6.305 -10.588 -13.593  0.00  0.00    +0.115 A 
ATOM      4  NE2 HIS A   1       7.228 -10.304 -14.570  0.00  0.00    -0.221 NA
ATOM      5  CE1 HIS A   1       6.823  -9.244 -15.247  0.00  0.00    +0.199 A 
ATOM      6  ND1 HIS A   1       5.673  -8.839 -14.739  0.00  0.00    -0.227 NA
ENDBRANCH   1   2
BRANCH   1   7
ATOM      7  CA  HIS A   1       4.265  -8.535 -11.704  0.00  0.00    +0.139 C 
BRANCH   7   8
ATOM      8  N   HIS A   1       5.547  -8.810 -11.054  0.00  0.00    -0.239 NA
ATOM      9  H   HIS A   1       5.758  -9.781 -10.746  0.00  0.00    +0.142 HD
ENDBRANCH   7   8
BRANCH   7  10
ATOM     10  C   HIS A   1       3.154  -8.705 -10.681  0.00  0.00    +0.224 C 
ATOM     11  O   HIS A   1       2.739  -9.824 -10.376  0.00  0.00    -0.287 OA
ENDBRANCH   7  10
ENDBRANCH   1   7
TORSDOF 4
REMARK  Name = ../refined-set-2016/4xmb/4xmb_pocket.pdb
REMARK  246 active torsions:
REMARK  status: ('A' for Active; 'I' for Inactive)
REMARK    1  A    between atoms: _1  and  _3
REMARK    2  A    between atoms: _3  and  _4
REMARK    3  A    between atoms: _6  and  _8
REMARK    4  A    between atoms: _8  and  _9
REMARK    5  A    between atoms: _8  and  _11
REMARK    6  A    between atoms: _11  and  _12
REMARK    7  A    between atoms: _17  and  _18
REMARK    8  A    between atoms: _20  and  _22
REMARK    9  A    between atoms: _22  and  _23
REMARK   10  A    between atoms: _22  and  _25
REMARK   11  A    between atoms: _25  and  _26
REMARK   12  A    between atoms: _32  and  _34
REMARK   13  A    between atoms: _34  and  _35
REMARK   14  A    between atoms: _34  and  _37
REMARK   15  A    between atoms: _37  and  _38
REMARK   16  A    between atoms: _38  and  _39
REMARK   17  A    between atoms: _39  and  _40
REMARK   18  A    between atoms: _49  and  _51
REMARK   19  A    between atoms: _51  and  _52
REMARK   20  A    between atoms: _51  and  _54
REMARK   21  A    between atoms: _54  and  _55
REMARK   22  A    between atoms: _55  and  _56
REMARK   23  A    between atoms: _61  and  _63
REMARK   24  A    between atoms: _63  and  _64
REMARK   25  A    between atoms: _63  and  _66
REMARK   26  A    between atoms: _66  and  _67
REMARK   27  A    between atoms: _69  and  _71
REMARK   28  A    between atoms: _71  and  _72
REMARK   29  A    between atoms: _71  and  _74
REMARK   30  A    between atoms: _74  and  _75
REMARK   31  A    between atoms: _78  and  _80
REMARK   32  A    between atoms: _80  and  _81
REMARK   33  A    between atoms: _80  and  _83
REMARK   34  A    between atoms: _83  and  _84
REMARK   35  A    between atoms: _84  and  _85
REMARK   36  A    between atoms: _85  and  _86
REMARK   37  A    between atoms: _95  and  _97
REMARK   38  A    between atoms: _97  and  _98
REMARK   39  A    between atoms: _97  and  _100
REMARK   40  A    between atoms: _100  and  _101
REMARK   41  A    between atoms: _103  and  _105
REMARK   42  A    between atoms: _105  and  _106
REMARK   43  A    between atoms: _108  and  _110
REMARK   44  A    between atoms: _110  and  _111
REMARK   45  A    between atoms: _110  and  _113
REMARK   46  A    between atoms: _113  and  _114
REMARK   47  A    between atoms: _117  and  _119
REMARK   48  A    between atoms: _119  and  _120
REMARK   49  A    between atoms: _122  and  _124
REMARK   50  A    between atoms: _124  and  _125
REMARK   51  A    between atoms: _127  and  _129
REMARK   52  A    between atoms: _129  and  _130
REMARK   53  A    between atoms: _129  and  _132
REMARK   54  A    between atoms: _132  and  _133
REMARK   55  A    between atoms: _133  and  _134
REMARK   56  A    between atoms: _134  and  _135
REMARK   57  A    between atoms: _144  and  _146
REMARK   58  A    between atoms: _146  and  _147
REMARK   59  A    between atoms: _146  and  _149
REMARK   60  A    between atoms: _149  and  _150
REMARK   61  A    between atoms: _155  and  _157
REMARK   62  A    between atoms: _157  and  _158
REMARK   63  A    between atoms: _157  and  _160
REMARK   64  A    between atoms: _160  and  _161
REMARK   65  A    between atoms: _164  and  _166
REMARK   66  A    between atoms: _166  and  _167
REMARK   67  A    between atoms: _166  and  _169
REMARK   68  A    between atoms: _169  and  _170
REMARK   69  A    between atoms: _173  and  _175
REMARK   70  A    between atoms: _175  and  _176
REMARK   71  A    between atoms: _175  and  _178
REMARK   72  A    between atoms: _178  and  _179
REMARK   73  A    between atoms: _181  and  _183
REMARK   74  A    between atoms: _183  and  _184
REMARK   75  A    between atoms: _183  and  _186
REMARK   76  A    between atoms: _186  and  _187
REMARK   77  A    between atoms: _187  and  _188
REMARK   78  A    between atoms: _188  and  _189
REMARK   79  A    between atoms: _198  and  _200
REMARK   80  A    between atoms: _200  and  _201
REMARK   81  A    between atoms: _200  and  _203
REMARK   82  A    between atoms: _203  and  _204
REMARK   83  A    between atoms: _209  and  _211
REMARK   84  A    between atoms: _211  and  _212
REMARK   85  A    between atoms: _211  and  _214
REMARK   86  A    between atoms: _214  and  _215
REMARK   87  A    between atoms: _215  and  _216
REMARK   88  A    between atoms: _216  and  _217
REMARK   89  A    between atoms: _226  and  _228
REMARK   90  A    between atoms: _228  and  _229
REMARK   91  A    between atoms: _228  and  _231
REMARK   92  A    between atoms: _231  and  _232
REMARK   93  A    between atoms: _235  and  _237
REMARK   94  A    between atoms: _237  and  _238
REMARK   95  A    between atoms: _240  and  _242
REMARK   96  A    between atoms: _242  and  _243
REMARK   97  A    between atoms: _242  and  _245
REMARK   98  A    between atoms: _245  and  _246
REMARK   99  A    between atoms: _248  and  _250
REMARK  100  A    between atoms: _250  and  _251
REMARK  101  A    between atoms: _250  and  _253
REMARK  102  A    between atoms: _253  and  _254
REMARK  103  A    between atoms: _259  and  _261
REMARK  104  A    between atoms: _261  and  _262
REMARK  105  A    between atoms: _261  and  _264
REMARK  106  A    between atoms: _264  and  _265
REMARK  107  A    between atoms: _265  and  _266
REMARK  108  A    between atoms: _266  and  _267
REMARK  109  A    between atoms: _276  and  _278
REMARK  110  A    between atoms: _278  and  _279
REMARK  111  A    between atoms: _278  and  _281
REMARK  112  A    between atoms: _281  and  _282
REMARK  113  A    between atoms: _285  and  _287
REMARK  114  A    between atoms: _287  and  _288
REMARK  115  A    between atoms: _290  and  _292
REMARK  116  A    between atoms: _292  and  _293
REMARK  117  A    between atoms: _292  and  _295
REMARK  118  A    between atoms: _298  and  _300
REMARK  119  A    between atoms: _300  and  _301
REMARK  120  A    between atoms: _303  and  _305
REMARK  121  A    between atoms: _305  and  _306
REMARK  122  A    between atoms: _308  and  _310
REMARK  123  A    between atoms: _310  and  _311
REMARK  124  A    between atoms: _310  and  _313
REMARK  125  A    between atoms: _313  and  _314
REMARK  126  A    between atoms: _320  and  _322
REMARK  127  A    between atoms: _322  and  _323
REMARK  128  A    between atoms: _322  and  _325
REMARK  129  A    between atoms: _325  and  _326
REMARK  130  A    between atoms: _329  and  _331
REMARK  131  A    between atoms: _331  and  _332
REMARK  132  A    between atoms: _334  and  _336
REMARK  133  A    between atoms: _336  and  _337
REMARK  134  A    between atoms: _336  and  _339
REMARK  135  A    between atoms: _339  and  _340
REMARK  136  A    between atoms: _345  and  _347
REMARK  137  A    between atoms: _347  and  _348
REMARK  138  A    between atoms: _347  and  _350
REMARK  139  A    between atoms: _350  and  _351
REMARK  140  A    between atoms: _351  and  _352
REMARK  141  A    between atoms: _352  and  _353
REMARK  142  A    between atoms: _362  and  _364
REMARK  143  A    between atoms: _364  and  _365
REMARK  144  A    between atoms: _364  and  _367
REMARK  145  A    between atoms: _367  and  _368
REMARK  146  A    between atoms: _371  and  _373
REMARK  147  A    between atoms: _373  and  _374
REMARK  148  A    between atoms: _373  and  _376
REMARK  149  A    between atoms: _376  and  _377
REMARK  150  A    between atoms: _377  and  _378
REMARK  151  A    between atoms: _378  and  _379
REMARK  152  A    between atoms: _388  and  _390
REMARK  153  A    between atoms: _390  and  _391
REMARK  154  A    between atoms: _390  and  _393
REMARK  155  A    between atoms: _393  and  _394
REMARK  156  A    between atoms: _396  and  _398
REMARK  157  A    between atoms: _398  and  _399
REMARK  158  A    between atoms: _401  and  _403
REMARK  159  A    between atoms: _403  and  _404
REMARK  160  A    between atoms: _407  and  _409
REMARK  161  A    between atoms: _409  and  _410
REMARK  162  A    between atoms: _412  and  _414
REMARK  163  A    between atoms: _414  and  _415
REMARK  164  A    between atoms: _414  and  _417
REMARK  165  A    between atoms: _417  and  _418
REMARK  166  A    between atoms: _423  and  _424
REMARK  167  A    between atoms: _426  and  _428
REMARK  168  A    between atoms: _428  and  _429
REMARK  169  A    between atoms: _428  and  _431
REMARK  170  A    between atoms: _431  and  _432
REMARK  171  A    between atoms: _435  and  _437
REMARK  172  A    between atoms: _437  and  _438
REMARK  173  A    between atoms: _440  and  _442
REMARK  174  A    between atoms: _442  and  _443
REMARK  175  A    between atoms: _442  and  _445
REMARK  176  A    between atoms: _445  and  _446
REMARK  177  A    between atoms: _446  and  _447
REMARK  178  A    between atoms: _452  and  _454
REMARK  179  A    between atoms: _454  and  _455
REMARK  180  A    between atoms: _454  and  _457
REMARK  181  A    between atoms: _457  and  _458
REMARK  182  A    between atoms: _461  and  _463
REMARK  183  A    between atoms: _463  and  _464
REMARK  184  A    between atoms: _463  and  _466
REMARK  185  A    between atoms: _466  and  _467
REMARK  186  A    between atoms: _467  and  _468
REMARK  187  A    between atoms: _473  and  _475
REMARK  188  A    between atoms: _475  and  _476
REMARK  189  A    between atoms: _475  and  _478
REMARK  190  A    between atoms: _478  and  _479
REMARK  191  A    between atoms: _482  and  _484
REMARK  192  A    between atoms: _484  and  _485
REMARK  193  A    between atoms: _484  and  _487
REMARK  194  A    between atoms: _487  and  _488
REMARK  195  A    between atoms: _488  and  _489
REMARK  196  A    between atoms: _489  and  _490
REMARK  197  A    between atoms: _499  and  _501
REMARK  198  A    between atoms: _501  and  _502
REMARK  199  A    between atoms: _501  and  _504
REMARK  200  A    between atoms: _504  and  _505
REMARK  201  A    between atoms: _507  and  _509
REMARK  202  A    between atoms: _509  and  _510
REMARK  203  A    between atoms: _513  and  _515
REMARK  204  A    between atoms: _515  and  _516
REMARK  205  A    between atoms: _515  and  _518
REMARK  206  A    between atoms: _518  and  _519
REMARK  207  A    between atoms: _522  and  _524
REMARK  208  A    between atoms: _524  and  _525
REMARK  209  A    between atoms: _527  and  _529
REMARK  210  A    between atoms: _529  and  _530
REMARK  211  A    between atoms: _529  and  _532
REMARK  212  A    between atoms: _532  and  _533
REMARK  213  A    between atoms: _538  and  _539
REMARK  214  A    between atoms: _541  and  _543
REMARK  215  A    between atoms: _543  and  _544
REMARK  216  A    between atoms: _543  and  _546
REMARK  217  A    between atoms: _546  and  _547
REMARK  218  A    between atoms: _550  and  _552
REMARK  219  A    between atoms: _552  and  _553
REMARK  220  A    between atoms: _555  and  _557
REMARK  221  A    between atoms: _557  and  _558
REMARK  222  A    between atoms: _557  and  _560
REMARK  223  A    between atoms: _560  and  _561
REMARK  224  A    between atoms: _566  and  _568
REMARK  225  A    between atoms: _568  and  _569
REMARK  226  A    between atoms: _568  and  _571
REMARK  227  A    between atoms: _571  and  _572
REMARK  228  A    between atoms: _575  and  _577
REMARK  229  A    between atoms: _577  and  _578
REMARK  230  A    between atoms: _577  and  _580
REMARK  231  A    between atoms: _580  and  _581
REMARK  232  A    between atoms: _587  and  _589
REMARK  233  A    between atoms: _589  and  _590
REMARK  234  A    between atoms: _589  and  _592
REMARK  235  A    between atoms: _592  and  _593
REMARK  236  A    between atoms: _593  and  _594
REMARK  237  A    between atoms: _594  and  _595
REMARK  238  A    between atoms: _604  and  _606
REMARK  239  A    between atoms: _606  and  _607
REMARK  240  A    between atoms: _606  and  _609
REMARK  241  A    between atoms: _609  and  _610
REMARK  242  A    between atoms: _612  and  _614
REMARK  243  A    between atoms: _614  and  _615
REMARK  244  A    between atoms: _617  and  _619
REMARK  245  A    between atoms: _619  and  _620
REMARK  246  A    between atoms: _619  and  _622
REMARK                            x       y       z     vdW  Elec       q    Type
REMARK                         _______ _______ _______ _____ _____    ______ ____
ROOT
ATOM      1  CA  ILE A   2       0.481  -5.213 -15.477  0.00  0.00    +0.148 C 
ENDROOT
BRANCH   1   4
ATOM      2  C   ARG A   1      -0.949  -6.774 -14.297  0.00  0.00    +0.238 C 
ATOM      3  O   ARG A   1      -1.177  -5.960 -13.402  0.00  0.00    -0.274 OA
ATOM      4  N   ILE A   2      -0.076  -6.545 -15.273  0.00  0.00    -0.297 N 
ATOM      5  H   ILE A   2       0.213  -7.324 -15.898  0.00  0.00    +0.150 HD
BRANCH   2   6
ATOM      6  CA  ARG A   1      -1.670  -8.117 -14.328  0.00  0.00    +0.145 C 
BRANCH   6   7
ATOM      7  N   ARG A   1      -1.325  -8.967 -13.192  0.00  0.00    -0.238 NA
ATOM      8  H   ARG A   1      -1.250  -8.549 -12.243  0.00  0.00    +0.142 HD
ENDBRANCH   6   7
BRANCH   6   9
ATOM      9  CB  ARG A   1      -3.181  -7.870 -14.368  0.00  0.00    +0.030 C 
BRANCH   9  10
ATOM     10  CG  ARG A   1      -4.034  -9.127 -14.327  0.00  0.00    +0.045 C 
BRANCH  10  11
ATOM     11  CD  ARG A   1      -5.510  -8.774 -14.264  0.00  0.00    +0.174 C 
BRANCH  11  12
ATOM     12  NE  ARG A   1      -6.357  -9.960 -14.188  0.00  0.00    -0.265 N 
ATOM     13  HE  ARG A   1      -6.571 -10.347 -13.247  0.00  0.00    +0.259 HD
ATOM     14  CZ  ARG A   1      -6.872 -10.576 -15.248  0.00  0.00    +0.342 C 
ATOM     15  NH2 ARG A   1      -7.633 -11.649 -15.088  0.00  0.00    -0.292 N 
ATOM     16 HH21 ARG A   1      -7.828 -12.010 -14.133  0.00  0.00    +0.255 HD
ATOM     17 HH22 ARG A   1      -8.035 -12.130 -15.918  0.00  0.00    +0.255 HD
ATOM     18  NH1 ARG A   1      -6.625 -10.118 -16.469  0.00  0.00    -0.292 N 
ATOM     19 HH11 ARG A   1      -6.028  -9.276 -16.598  0.00  0.00    +0.255 HD
ATOM     20 HH12 ARG A   1      -7.029 -10.601 -17.297  0.00  0.00    +0.255 HD
ENDBRANCH  11  12
ENDBRANCH  10  11
ENDBRANCH   9  10
ENDBRANCH   6   9
ENDBRANCH   2   6
ENDBRANCH   1   4
BRANCH   1  21
ATOM     21  C   ILE A   2      -0.054  -4.665 -16.793  0.00  0.00    +0.241 C 
ATOM     22  N   GLY A   3      -0.343  -3.371 -16.823  0.00  0.00    -0.295 N 
ATOM     23  H   GLY A   3      -0.102  -2.773 -16.007  0.00  0.00    +0.150 HD
ATOM     24  O   ILE A   2      -0.207  -5.405 -17.763  0.00  0.00    -0.273 OA
BRANCH  22  25
ATOM     25  CA  GLY A   3      -0.990  -2.778 -17.978  0.00  0.00    +0.176 C 
BRANCH  25  26
ATOM     26  C   GLY A   3      -2.453  -3.175 -17.984  0.00  0.00    +0.243 C 
ATOM     27  N   VAL A   4      -2.968  -3.449 -16.791  0.00  0.00    -0.298 N 
ATOM     28  H   VAL A   4      -2.361  -3.355 -15.952  0.00  0.00    +0.150 HD
ATOM     29  O   GLY A   3      -3.098  -3.239 -19.032  0.00  0.00    -0.273 OA
BRANCH  27  30
ATOM     30  CA  VAL A   4      -4.347  -3.875 -16.612  0.00  0.00    +0.137 C 
BRANCH  30  31
ATOM     31  CB  VAL A   4      -4.539  -4.555 -15.235  0.00  0.00    +0.026 C 
ATOM     32  CG2 VAL A   4      -4.134  -3.612 -14.114  0.00  0.00    +0.002 C 
ATOM     33  CG1 VAL A   4      -5.977  -5.016 -15.055  0.00  0.00    +0.002 C 
ENDBRANCH  30  31
BRANCH  30  34
ATOM     34  C   VAL A   4      -5.312  -2.699 -16.736  0.00  0.00    +0.227 C 
ATOM     35  O   VAL A   4      -4.967  -1.561 -16.422  0.00  0.00    -0.286 OA
ENDBRANCH  30  34
ENDBRANCH  27  30
ENDBRANCH  25  26
ENDBRANCH  22  25
ENDBRANCH   1  21
BRANCH   1  36
ATOM     36  CB  ILE A   2       2.026  -5.204 -15.492  0.00  0.00    +0.027 C 
ATOM     37  CG2 ILE A   2       2.580  -6.351 -14.660  0.00  0.00    +0.002 C 
BRANCH  36  38
ATOM     38  CG1 ILE A   2       2.554  -5.234 -16.927  0.00  0.00    +0.002 C 
ATOM     39  CD1 ILE A   2       4.036  -4.981 -17.028  0.00  0.00    +0.000 C 
ENDBRANCH  36  38
ENDBRANCH   1  36
TORSDOF 15
REMARK  Name = ../refined-set-2016/4xmb/4xmb_pocket.pdb
REMARK  246 active torsions:
REMARK  status: ('A' for Active; 'I' for Inactive)
REMARK    1  A    between atoms: _1  and  _3
REMARK    2  A    between atoms: _3  and  _4
REMARK    3  A    between atoms: _6  and  _8
REMARK    4  A    between atoms: _8  and  _9
REMARK    5  A    between atoms: _8  and  _11
REMARK    6  A    between atoms: _11  and  _12
REMARK    7  A    between atoms: _17  and  _18
REMARK    8  A    between atoms: _20  and  _22
REMARK    9  A    between atoms: _22  and  _23
REMARK   10  A    between atoms: _22  and  _25
REMARK   11  A    between atoms: _25  and  _26
REMARK   12  A    between atoms: _32  and  _34
REMARK   13  A    between atoms: _34  and  _35
REMARK   14  A    between atoms: _34  and  _37
REMARK   15  A    between atoms: _37  and  _38
REMARK   16  A    between atoms: _38  and  _39
REMARK   17  A    between atoms: _39  and  _40
REMARK   18  A    between atoms: _49  and  _51
REMARK   19  A    between atoms: _51  and  _52
REMARK   20  A    between atoms: _51  and  _54
REMARK   21  A    between atoms: _54  and  _55
REMARK   22  A    between atoms: _55  and  _56
REMARK   23  A    between atoms: _61  and  _63
REMARK   24  A    between atoms: _63  and  _64
REMARK   25  A    between atoms: _63  and  _66
REMARK   26  A    between atoms: _66  and  _67
REMARK   27  A    between atoms: _69  and  _71
REMARK   28  A    between atoms: _71  and  _72
REMARK   29  A    between atoms: _71  and  _74
REMARK   30  A    between atoms: _74  and  _75
REMARK   31  A    between atoms: _78  and  _80
REMARK   32  A    between atoms: _80  and  _81
REMARK   33  A    between atoms: _80  and  _83
REMARK   34  A    between atoms: _83  and  _84
REMARK   35  A    between atoms: _84  and  _85
REMARK   36  A    between atoms: _85  and  _86
REMARK   37  A    between atoms: _95  and  _97
REMARK   38  A    between atoms: _97  and  _98
REMARK   39  A    between atoms: _97  and  _100
REMARK   40  A    between atoms: _100  and  _101
REMARK   41  A    between atoms: _103  and  _105
REMARK   42  A    between atoms: _105  and  _106
REMARK   43  A    between atoms: _108  and  _110
REMARK   44  A    between atoms: _110  and  _111
REMARK   45  A    between atoms: _110  and  _113
REMARK   46  A    between atoms: _113  and  _114
REMARK   47  A    between atoms: _117  and  _119
REMARK   48  A    between atoms: _119  and  _120
REMARK   49  A    between atoms: _122  and  _124
REMARK   50  A    between atoms: _124  and  _125
REMARK   51  A    between atoms: _127  and  _129
REMARK   52  A    between atoms: _129  and  _130
REMARK   53  A    between atoms: _129  and  _132
REMARK   54  A    between atoms: _132  and  _133
REMARK   55  A    between atoms: _133  and  _134
REMARK   56  A    between atoms: _134  and  _135
REMARK   57  A    between atoms: _144  and  _146
REMARK   58  A    between atoms: _146  and  _147
REMARK   59  A    between atoms: _146  and  _149
REMARK   60  A    between atoms: _149  and  _150
REMARK   61  A    between atoms: _155  and  _157
REMARK   62  A    between atoms: _157  and  _158
REMARK   63  A    between atoms: _157  and  _160
REMARK   64  A    between atoms: _160  and  _161
REMARK   65  A    between atoms: _164  and  _166
REMARK   66  A    between atoms: _166  and  _167
REMARK   67  A    between atoms: _166  and  _169
REMARK   68  A    between atoms: _169  and  _170
REMARK   69  A    between atoms: _173  and  _175
REMARK   70  A    between atoms: _175  and  _176
REMARK   71  A    between atoms: _175  and  _178
REMARK   72  A    between atoms: _178  and  _179
REMARK   73  A    between atoms: _181  and  _183
REMARK   74  A    between atoms: _183  and  _184
REMARK   75  A    between atoms: _183  and  _186
REMARK   76  A    between atoms: _186  and  _187
REMARK   77  A    between atoms: _187  and  _188
REMARK   78  A    between atoms: _188  and  _189
REMARK   79  A    between atoms: _198  and  _200
REMARK   80  A    between atoms: _200  and  _201
REMARK   81  A    between atoms: _200  and  _203
REMARK   82  A    between atoms: _203  and  _204
REMARK   83  A    between atoms: _209  and  _211
REMARK   84  A    between atoms: _211  and  _212
REMARK   85  A    between atoms: _211  and  _214
REMARK   86  A    between atoms: _214  and  _215
REMARK   87  A    between atoms: _215  and  _216
REMARK   88  A    between atoms: _216  and  _217
REMARK   89  A    between atoms: _226  and  _228
REMARK   90  A    between atoms: _228  and  _229
REMARK   91  A    between atoms: _228  and  _231
REMARK   92  A    between atoms: _231  and  _232
REMARK   93  A    between atoms: _235  and  _237
REMARK   94  A    between atoms: _237  and  _238
REMARK   95  A    between atoms: _240  and  _242
REMARK   96  A    between atoms: _242  and  _243
REMARK   97  A    between atoms: _242  and  _245
REMARK   98  A    between atoms: _245  and  _246
REMARK   99  A    between atoms: _248  and  _250
REMARK  100  A    between atoms: _250  and  _251
REMARK  101  A    between atoms: _250  and  _253
REMARK  102  A    between atoms: _253  and  _254
REMARK  103  A    between atoms: _259  and  _261
REMARK  104  A    between atoms: _261  and  _262
REMARK  105  A    between atoms: _261  and  _264
REMARK  106  A    between atoms: _264  and  _265
REMARK  107  A    between atoms: _265  and  _266
REMARK  108  A    between atoms: _266  and  _267
REMARK  109  A    between atoms: _276  and  _278
REMARK  110  A    between atoms: _278  and  _279
REMARK  111  A    between atoms: _278  and  _281
REMARK  112  A    between atoms: _281  and  _282
REMARK  113  A    between atoms: _285  and  _287
REMARK  114  A    between atoms: _287  and  _288
REMARK  115  A    between atoms: _290  and  _292
REMARK  116  A    between atoms: _292  and  _293
REMARK  117  A    between atoms: _292  and  _295
REMARK  118  A    between atoms: _298  and  _300
REMARK  119  A    between atoms: _300  and  _301
REMARK  120  A    between atoms: _303  and  _305
REMARK  121  A    between atoms: _305  and  _306
REMARK  122  A    between atoms: _308  and  _310
REMARK  123  A    between atoms: _310  and  _311
REMARK  124  A    between atoms: _310  and  _313
REMARK  125  A    between atoms: _313  and  _314
REMARK  126  A    between atoms: _320  and  _322
REMARK  127  A    between atoms: _322  and  _323
REMARK  128  A    between atoms: _322  and  _325
REMARK  129  A    between atoms: _325  and  _326
REMARK  130  A    between atoms: _329  and  _331
REMARK  131  A    between atoms: _331  and  _332
REMARK  132  A    between atoms: _334  and  _336
REMARK  133  A    between atoms: _336  and  _337
REMARK  134  A    between atoms: _336  and  _339
REMARK  135  A    between atoms: _339  and  _340
REMARK  136  A    between atoms: _345  and  _347
REMARK  137  A    between atoms: _347  and  _348
REMARK  138  A    between atoms: _347  and  _350
REMARK  139  A    between atoms: _350  and  _351
REMARK  140  A    between atoms: _351  and  _352
REMARK  141  A    between atoms: _352  and  _353
REMARK  142  A    between atoms: _362  and  _364
REMARK  143  A    between atoms: _364  and  _365
REMARK  144  A    between atoms: _364  and  _367
REMARK  145  A    between atoms: _367  and  _368
REMARK  146  A    between atoms: _371  and  _373
REMARK  147  A    between atoms: _373  and  _374
REMARK  148  A    between atoms: _373  and  _376
REMARK  149  A    between atoms: _376  and  _377
REMARK  150  A    between atoms: _377  and  _378
REMARK  151  A    between atoms: _378  and  _379
REMARK  152  A    between atoms: _388  and  _390
REMARK  153  A    between atoms: _390  and  _391
REMARK  154  A    between atoms: _390  and  _393
REMARK  155  A    between atoms: _393  and  _394
REMARK  156  A    between atoms: _396  and  _398
REMARK  157  A    between atoms: _398  and  _399
REMARK  158  A    between atoms: _401  and  _403
REMARK  159  A    between atoms: _403  and  _404
REMARK  160  A    between atoms: _407  and  _409
REMARK  161  A    between atoms: _409  and  _410
REMARK  162  A    between atoms: _412  and  _414
REMARK  163  A    between atoms: _414  and  _415
REMARK  164  A    between atoms: _414  and  _417
REMARK  165  A    between atoms: _417  and  _418
REMARK  166  A    between atoms: _423  and  _424
REMARK  167  A    between atoms: _426  and  _428
REMARK  168  A    between atoms: _428  and  _429
REMARK  169  A    between atoms: _428  and  _431
REMARK  170  A    between atoms: _431  and  _432
REMARK  171  A    between atoms: _435  and  _437
REMARK  172  A    between atoms: _437  and  _438
REMARK  173  A    between atoms: _440  and  _442
REMARK  174  A    between atoms: _442  and  _443
REMARK  175  A    between atoms: _442  and  _445
REMARK  176  A    between atoms: _445  and  _446
REMARK  177  A    between atoms: _446  and  _447
REMARK  178  A    between atoms: _452  and  _454
REMARK  179  A    between atoms: _454  and  _455
REMARK  180  A    between atoms: _454  and  _457
REMARK  181  A    between atoms: _457  and  _458
REMARK  182  A    between atoms: _461  and  _463
REMARK  183  A    between atoms: _463  and  _464
REMARK  184  A    between atoms: _463  and  _466
REMARK  185  A    between atoms: _466  and  _467
REMARK  186  A    between atoms: _467  and  _468
REMARK  187  A    between atoms: _473  and  _475
REMARK  188  A    between atoms: _475  and  _476
REMARK  189  A    between atoms: _475  and  _478
REMARK  190  A    between atoms: _478  and  _479
REMARK  191  A    between atoms: _482  and  _484
REMARK  192  A    between atoms: _484  and  _485
REMARK  193  A    between atoms: _484  and  _487
REMARK  194  A    between atoms: _487  and  _488
REMARK  195  A    between atoms: _488  and  _489
REMARK  196  A    between atoms: _489  and  _490
REMARK  197  A    between atoms: _499  and  _501
REMARK  198  A    between atoms: _501  and  _502
REMARK  199  A    between atoms: _501  and  _504
REMARK  200  A    between atoms: _504  and  _505
REMARK  201  A    between atoms: _507  and  _509
REMARK  202  A    between atoms: _509  and  _510
REMARK  203  A    between atoms: _513  and  _515
REMARK  204  A    between atoms: _515  and  _516
REMARK  205  A    between atoms: _515  and  _518
REMARK  206  A    between atoms: _518  and  _519
REMARK  207  A    between atoms: _522  and  _524
REMARK  208  A    between atoms: _524  and  _525
REMARK  209  A    between atoms: _527  and  _529
REMARK  210  A    between atoms: _529  and  _530
REMARK  211  A    between atoms: _529  and  _532
REMARK  212  A    between atoms: _532  and  _533
REMARK  213  A    between atoms: _538  and  _539
REMARK  214  A    between atoms: _541  and  _543
REMARK  215  A    between atoms: _543  and  _544
REMARK  216  A    between atoms: _543  and  _546
REMARK  217  A    between atoms: _546  and  _547
REMARK  218  A    between atoms: _550  and  _552
REMARK  219  A    between atoms: _552  and  _553
REMARK  220  A    between atoms: _555  and  _557
REMARK  221  A    between atoms: _557  and  _558
REMARK  222  A    between atoms: _557  and  _560
REMARK  223  A    between atoms: _560  and  _561
REMARK  224  A    between atoms: _566  and  _568
REMARK  225  A    between atoms: _568  and  _569
REMARK  226  A    between atoms: _568  and  _571
REMARK  227  A    between atoms: _571  and  _572
REMARK  228  A    between atoms: _575  and  _577
REMARK  229  A    between atoms: _577  and  _578
REMARK  230  A    between atoms: _577  and  _580
REMARK  231  A    between atoms: _580  and  _581
REMARK  232  A    between atoms: _587  and  _589
REMARK  233  A    between atoms: _589  and  _590
REMARK  234  A    between atoms: _589  and  _592
REMARK  235  A    between atoms: _592  and  _593
REMARK  236  A    between atoms: _593  and  _594
REMARK  237  A    between atoms: _594  and  _595
REMARK  238  A    between atoms: _604  and  _606
REMARK  239  A    between atoms: _606  and  _607
REMARK  240  A    between atoms: _606  and  _609
REMARK  241  A    between atoms: _609  and  _610
REMARK  242  A    between atoms: _612  and  _614
REMARK  243  A    between atoms: _614  and  _615
REMARK  244  A    between atoms: _617  and  _619
REMARK  245  A    between atoms: _619  and  _620
REMARK  246  A    between atoms: _619  and  _622
REMARK                            x       y       z     vdW  Elec       q    Type
REMARK                         _______ _______ _______ _____ _____    ______ ____
ROOT
ATOM      1  CA  PHE A   3       0.465  -9.090 -18.855  0.00  0.00    +0.153 C 
ENDROOT
BRANCH   1   3
ATOM      2  C   GLY A   2      -1.753  -8.197 -19.338  0.00  0.00    +0.243 C 
ATOM      3  N   PHE A   3      -0.680  -8.244 -18.557  0.00  0.00    -0.297 N 
ATOM      4  H   PHE A   3      -0.658  -7.654 -17.701  0.00  0.00    +0.150 HD
ATOM      5  O   GLY A   2      -1.889  -8.896 -20.341  0.00  0.00    -0.273 OA
BRANCH   2   6
ATOM      6  CA  GLY A   2      -2.828  -7.218 -18.914  0.00  0.00    +0.176 C 
BRANCH   6   9
ATOM      7  C   GLY A   1      -5.197  -7.708 -18.767  0.00  0.00    +0.240 C 
ATOM      8  O   GLY A   1      -5.175  -7.708 -17.535  0.00  0.00    -0.274 OA
ATOM      9  N   GLY A   2      -4.117  -7.505 -19.511  0.00  0.00    -0.295 N 
ATOM     10  H   GLY A   2      -4.198  -7.553 -20.547  0.00  0.00    +0.150 HD
BRANCH   7  11
ATOM     11  CA  GLY A   1      -6.484  -7.951 -19.528  0.00  0.00    +0.169 C 
BRANCH  11  12
ATOM     12  N   GLY A   1      -7.680  -7.757 -18.731  0.00  0.00    -0.236 NA
ATOM     13  H   GLY A   1      -8.367  -8.535 -18.660  0.00  0.00    +0.142 HD
ENDBRANCH  11  12
ENDBRANCH   7  11
ENDBRANCH   6   9
ENDBRANCH   2   6
ENDBRANCH   1   3
BRANCH   1  14
ATOM     14  C   PHE A   3       0.951  -9.727 -17.559  0.00  0.00    +0.241 C 
ATOM     15  O   PHE A   3       1.357  -9.027 -16.631  0.00  0.00    -0.273 OA
ATOM     16  N   ASP A   4       0.893 -11.054 -17.493  0.00  0.00    -0.297 N 
ATOM     17  H   ASP A   4       0.609 -11.593 -18.336  0.00  0.00    +0.150 HD
BRANCH  16  18
ATOM     18  CA  ASP A   4       1.220 -11.772 -16.263  0.00  0.00    +0.160 C 
BRANCH  18  19
ATOM     19  C   ASP A   4       2.715 -12.019 -16.112  0.00  0.00    +0.241 C 
ATOM     20  O   ASP A   4       3.141 -12.774 -15.238  0.00  0.00    -0.273 OA
ATOM     21  N   GLY A   5       3.509 -11.382 -16.964  0.00  0.00    -0.296 N 
ATOM     22  H   GLY A   5       3.089 -10.758 -17.683  0.00  0.00    +0.150 HD
BRANCH  21  23
ATOM     23  CA  GLY A   5       4.950 -11.538 -16.913  0.00  0.00    +0.163 C 
BRANCH  23  24
ATOM     24  C   GLY A   5       5.466 -12.537 -17.930  0.00  0.00    +0.229 C 
ATOM     25  O   GLY A   5       6.660 -12.574 -18.224  0.00  0.00    -0.286 OA
ENDBRANCH  23  24
ENDBRANCH  21  23
ENDBRANCH  18  19
BRANCH  18  26
ATOM     26  CB  ASP A   4       0.461 -13.099 -16.194  0.00  0.00    +0.143 C 
BRANCH  26  27
ATOM     27  CG  ASP A   4       0.820 -14.036 -17.329  0.00  0.00    +0.367 C 
ATOM     28  OD2 ASP A   4      -0.064 -14.799 -17.769  0.00  0.00    -0.246 OA
ATOM     29  OD1 ASP A   4       1.983 -14.009 -17.782  0.00  0.00    -0.246 OA
ENDBRANCH  26  27
ENDBRANCH  18  26
ENDBRANCH  16  18
ENDBRANCH   1  14
BRANCH   1  30
ATOM     30  CB  PHE A   3       1.571  -8.252 -19.500  0.00  0.00    +0.055 C 
BRANCH  30  31
ATOM     31  CG  PHE A   3       2.779  -9.042 -19.914  0.00  0.00    -0.020 A 
ATOM     32  CD2 PHE A   3       4.020  -8.775 -19.359  0.00  0.00    -0.004 A 
ATOM     33  CE2 PHE A   3       5.138  -9.491 -19.744  0.00  0.00    -0.000 A 
ATOM     34  CZ  PHE A   3       5.025 -10.482 -20.699  0.00  0.00    -0.000 A 
ATOM     35  CE1 PHE A   3       3.795 -10.753 -21.267  0.00  0.00    -0.000 A 
ATOM     36  CD1 PHE A   3       2.682 -10.032 -20.878  0.00  0.00    -0.004 A 
ENDBRANCH  30  31
ENDBRANCH   1  30
TORSDOF 14
REMARK  Name = ../refined-set-2016/4xmb/4xmb_pocket.pdb
REMARK  246 active torsions:
REMARK  status: ('A' for Active; 'I' for Inactive)
REMARK    1  A    between atoms: _1  and  _3
REMARK    2  A    between atoms: _3  and  _4
REMARK    3  A    between atoms: _6  and  _8
REMARK    4  A    between atoms: _8  and  _9
REMARK    5  A    between atoms: _8  and  _11
REMARK    6  A    between atoms: _11  and  _12
REMARK    7  A    between atoms: _17  and  _18
REMARK    8  A    between atoms: _20  and  _22
REMARK    9  A    between atoms: _22  and  _23
REMARK   10  A    between atoms: _22  and  _25
REMARK   11  A    between atoms: _25  and  _26
REMARK   12  A    between atoms: _32  and  _34
REMARK   13  A    between atoms: _34  and  _35
REMARK   14  A    between atoms: _34  and  _37
REMARK   15  A    between atoms: _37  and  _38
REMARK   16  A    between atoms: _38  and  _39
REMARK   17  A    between atoms: _39  and  _40
REMARK   18  A    between atoms: _49  and  _51
REMARK   19  A    between atoms: _51  and  _52
REMARK   20  A    between atoms: _51  and  _54
REMARK   21  A    between atoms: _54  and  _55
REMARK   22  A    between atoms: _55  and  _56
REMARK   23  A    between atoms: _61  and  _63
REMARK   24  A    between atoms: _63  and  _64
REMARK   25  A    between atoms: _63  and  _66
REMARK   26  A    between atoms: _66  and  _67
REMARK   27  A    between atoms: _69  and  _71
REMARK   28  A    between atoms: _71  and  _72
REMARK   29  A    between atoms: _71  and  _74
REMARK   30  A    between atoms: _74  and  _75
REMARK   31  A    between atoms: _78  and  _80
REMARK   32  A    between atoms: _80  and  _81
REMARK   33  A    between atoms: _80  and  _83
REMARK   34  A    between atoms: _83  and  _84
REMARK   35  A    between atoms: _84  and  _85
REMARK   36  A    between atoms: _85  and  _86
REMARK   37  A    between atoms: _95  and  _97
REMARK   38  A    between atoms: _97  and  _98
REMARK   39  A    between atoms: _97  and  _100
REMARK   40  A    between atoms: _100  and  _101
REMARK   41  A    between atoms: _103  and  _105
REMARK   42  A    between atoms: _105  and  _106
REMARK   43  A    between atoms: _108  and  _110
REMARK   44  A    between atoms: _110  and  _111
REMARK   45  A    between atoms: _110  and  _113
REMARK   46  A    between atoms: _113  and  _114
REMARK   47  A    between atoms: _117  and  _119
REMARK   48  A    between atoms: _119  and  _120
REMARK   49  A    between atoms: _122  and  _124
REMARK   50  A    between atoms: _124  and  _125
REMARK   51  A    between atoms: _127  and  _129
REMARK   52  A    between atoms: _129  and  _130
REMARK   53  A    between atoms: _129  and  _132
REMARK   54  A    between atoms: _132  and  _133
REMARK   55  A    between atoms: _133  and  _134
REMARK   56  A    between atoms: _134  and  _135
REMARK   57  A    between atoms: _144  and  _146
REMARK   58  A    between atoms: _146  and  _147
REMARK   59  A    between atoms: _146  and  _149
REMARK   60  A    between atoms: _149  and  _150
REMARK   61  A    between atoms: _155  and  _157
REMARK   62  A    between atoms: _157  and  _158
REMARK   63  A    between atoms: _157  and  _160
REMARK   64  A    between atoms: _160  and  _161
REMARK   65  A    between atoms: _164  and  _166
REMARK   66  A    between atoms: _166  and  _167
REMARK   67  A    between atoms: _166  and  _169
REMARK   68  A    between atoms: _169  and  _170
REMARK   69  A    between atoms: _173  and  _175
REMARK   70  A    between atoms: _175  and  _176
REMARK   71  A    between atoms: _175  and  _178
REMARK   72  A    between atoms: _178  and  _179
REMARK   73  A    between atoms: _181  and  _183
REMARK   74  A    between atoms: _183  and  _184
REMARK   75  A    between atoms: _183  and  _186
REMARK   76  A    between atoms: _186  and  _187
REMARK   77  A    between atoms: _187  and  _188
REMARK   78  A    between atoms: _188  and  _189
REMARK   79  A    between atoms: _198  and  _200
REMARK   80  A    between atoms: _200  and  _201
REMARK   81  A    between atoms: _200  and  _203
REMARK   82  A    between atoms: _203  and  _204
REMARK   83  A    between atoms: _209  and  _211
REMARK   84  A    between atoms: _211  and  _212
REMARK   85  A    between atoms: _211  and  _214
REMARK   86  A    between atoms: _214  and  _215
REMARK   87  A    between atoms: _215  and  _216
REMARK   88  A    between atoms: _216  and  _217
REMARK   89  A    between atoms: _226  and  _228
REMARK   90  A    between atoms: _228  and  _229
REMARK   91  A    between atoms: _228  and  _231
REMARK   92  A    between atoms: _231  and  _232
REMARK   93  A    between atoms: _235  and  _237
REMARK   94  A    between atoms: _237  and  _238
REMARK   95  A    between atoms: _240  and  _242
REMARK   96  A    between atoms: _242  and  _243
REMARK   97  A    between atoms: _242  and  _245
REMARK   98  A    between atoms: _245  and  _246
REMARK   99  A    between atoms: _248  and  _250
REMARK  100  A    between atoms: _250  and  _251
REMARK  101  A    between atoms: _250  and  _253
REMARK  102  A    between atoms: _253  and  _254
REMARK  103  A    between atoms: _259  and  _261
REMARK  104  A    between atoms: _261  and  _262
REMARK  105  A    between atoms: _261  and  _264
REMARK  106  A    between atoms: _264  and  _265
REMARK  107  A    between atoms: _265  and  _266
REMARK  108  A    between atoms: _266  and  _267
REMARK  109  A    between atoms: _276  and  _278
REMARK  110  A    between atoms: _278  and  _279
REMARK  111  A    between atoms: _278  and  _281
REMARK  112  A    between atoms: _281  and  _282
REMARK  113  A    between atoms: _285  and  _287
REMARK  114  A    between atoms: _287  and  _288
REMARK  115  A    between atoms: _290  and  _292
REMARK  116  A    between atoms: _292  and  _293
REMARK  117  A    between atoms: _292  and  _295
REMARK  118  A    between atoms: _298  and  _300
REMARK  119  A    between atoms: _300  and  _301
REMARK  120  A    between atoms: _303  and  _305
REMARK  121  A    between atoms: _305  and  _306
REMARK  122  A    between atoms: _308  and  _310
REMARK  123  A    between atoms: _310  and  _311
REMARK  124  A    between atoms: _310  and  _313
REMARK  125  A    between atoms: _313  and  _314
REMARK  126  A    between atoms: _320  and  _322
REMARK  127  A    between atoms: _322  and  _323
REMARK  128  A    between atoms: _322  and  _325
REMARK  129  A    between atoms: _325  and  _326
REMARK  130  A    between atoms: _329  and  _331
REMARK  131  A    between atoms: _331  and  _332
REMARK  132  A    between atoms: _334  and  _336
REMARK  133  A    between atoms: _336  and  _337
REMARK  134  A    between atoms: _336  and  _339
REMARK  135  A    between atoms: _339  and  _340
REMARK  136  A    between atoms: _345  and  _347
REMARK  137  A    between atoms: _347  and  _348
REMARK  138  A    between atoms: _347  and  _350
REMARK  139  A    between atoms: _350  and  _351
REMARK  140  A    between atoms: _351  and  _352
REMARK  141  A    between atoms: _352  and  _353
REMARK  142  A    between atoms: _362  and  _364
REMARK  143  A    between atoms: _364  and  _365
REMARK  144  A    between atoms: _364  and  _367
REMARK  145  A    between atoms: _367  and  _368
REMARK  146  A    between atoms: _371  and  _373
REMARK  147  A    between atoms: _373  and  _374
REMARK  148  A    between atoms: _373  and  _376
REMARK  149  A    between atoms: _376  and  _377
REMARK  150  A    between atoms: _377  and  _378
REMARK  151  A    between atoms: _378  and  _379
REMARK  152  A    between atoms: _388  and  _390
REMARK  153  A    between atoms: _390  and  _391
REMARK  154  A    between atoms: _390  and  _393
REMARK  155  A    between atoms: _393  and  _394
REMARK  156  A    between atoms: _396  and  _398
REMARK  157  A    between atoms: _398  and  _399
REMARK  158  A    between atoms: _401  and  _403
REMARK  159  A    between atoms: _403  and  _404
REMARK  160  A    between atoms: _407  and  _409
REMARK  161  A    between atoms: _409  and  _410
REMARK  162  A    between atoms: _412  and  _414
REMARK  163  A    between atoms: _414  and  _415
REMARK  164  A    between atoms: _414  and  _417
REMARK  165  A    between atoms: _417  and  _418
REMARK  166  A    between atoms: _423  and  _424
REMARK  167  A    between atoms: _426  and  _428
REMARK  168  A    between atoms: _428  and  _429
REMARK  169  A    between atoms: _428  and  _431
REMARK  170  A    between atoms: _431  and  _432
REMARK  171  A    between atoms: _435  and  _437
REMARK  172  A    between atoms: _437  and  _438
REMARK  173  A    between atoms: _440  and  _442
REMARK  174  A    between atoms: _442  and  _443
REMARK  175  A    between atoms: _442  and  _445
REMARK  176  A    between atoms: _445  and  _446
REMARK  177  A    between atoms: _446  and  _447
REMARK  178  A    between atoms: _452  and  _454
REMARK  179  A    between atoms: _454  and  _455
REMARK  180  A    between atoms: _454  and  _457
REMARK  181  A    between atoms: _457  and  _458
REMARK  182  A    between atoms: _461  and  _463
REMARK  183  A    between atoms: _463  and  _464
REMARK  184  A    between atoms: _463  and  _466
REMARK  185  A    between atoms: _466  and  _467
REMARK  186  A    between atoms: _467  and  _468
REMARK  187  A    between atoms: _473  and  _475
REMARK  188  A    between atoms: _475  and  _476
REMARK  189  A    between atoms: _475  and  _478
REMARK  190  A    between atoms: _478  and  _479
REMARK  191  A    between atoms: _482  and  _484
REMARK  192  A    between atoms: _484  and  _485
REMARK  193  A    between atoms: _484  and  _487
REMARK  194  A    between atoms: _487  and  _488
REMARK  195  A    between atoms: _488  and  _489
REMARK  196  A    between atoms: _489  and  _490
REMARK  197  A    between atoms: _499  and  _501
REMARK  198  A    between atoms: _501  and  _502
REMARK  199  A    between atoms: _501  and  _504
REMARK  200  A    between atoms: _504  and  _505
REMARK  201  A    between atoms: _507  and  _509
REMARK  202  A    between atoms: _509  and  _510
REMARK  203  A    between atoms: _513  and  _515
REMARK  204  A    between atoms: _515  and  _516
REMARK  205  A    between atoms: _515  and  _518
REMARK  206  A    between atoms: _518  and  _519
REMARK  207  A    between atoms: _522  and  _524
REMARK  208  A    between atoms: _524  and  _525
REMARK  209  A    between atoms: _527  and  _529
REMARK  210  A    between atoms: _529  and  _530
REMARK  211  A    between atoms: _529  and  _532
REMARK  212  A    between atoms: _532  and  _533
REMARK  213  A    between atoms: _538  and  _539
REMARK  214  A    between atoms: _541  and  _543
REMARK  215  A    between atoms: _543  and  _544
REMARK  216  A    between atoms: _543  and  _546
REMARK  217  A    between atoms: _546  and  _547
REMARK  218  A    between atoms: _550  and  _552
REMARK  219  A    between atoms: _552  and  _553
REMARK  220  A    between atoms: _555  and  _557
REMARK  221  A    between atoms: _557  and  _558
REMARK  222  A    between atoms: _557  and  _560
REMARK  223  A    between atoms: _560  and  _561
REMARK  224  A    between atoms: _566  and  _568
REMARK  225  A    between atoms: _568  and  _569
REMARK  226  A    between atoms: _568  and  _571
REMARK  227  A    between atoms: _571  and  _572
REMARK  228  A    between atoms: _575  and  _577
REMARK  229  A    between atoms: _577  and  _578
REMARK  230  A    between atoms: _577  and  _580
REMARK  231  A    between atoms: _580  and  _581
REMARK  232  A    between atoms: _587  and  _589
REMARK  233  A    between atoms: _589  and  _590
REMARK  234  A    between atoms: _589  and  _592
REMARK  235  A    between atoms: _592  and  _593
REMARK  236  A    between atoms: _593  and  _594
REMARK  237  A    between atoms: _594  and  _595
REMARK  238  A    between atoms: _604  and  _606
REMARK  239  A    between atoms: _606  and  _607
REMARK  240  A    between atoms: _606  and  _609
REMARK  241  A    between atoms: _609  and  _610
REMARK  242  A    between atoms: _612  and  _614
REMARK  243  A    between atoms: _614  and  _615
REMARK  244  A    between atoms: _617  and  _619
REMARK  245  A    between atoms: _619  and  _620
REMARK  246  A    between atoms: _619  and  _622
REMARK                            x       y       z     vdW  Elec       q    Type
REMARK                         _______ _______ _______ _____ _____    ______ ____
ROOT
ATOM      1  CA  ARG A   2      -0.546 -11.218 -22.607  0.00  0.00    +0.149 C 
ENDROOT
BRANCH   1   4
ATOM      2  C   ASN A   1       0.844 -12.835 -21.450  0.00  0.00    +0.239 C 
ATOM      3  O   ASN A   1       0.480 -12.438 -20.343  0.00  0.00    -0.274 OA
ATOM      4  N   ARG A   2       0.464 -12.262 -22.586  0.00  0.00    -0.297 N 
ATOM      5  H   ARG A   2       0.899 -12.567 -23.480  0.00  0.00    +0.150 HD
BRANCH   2   6
ATOM      6  CA  ASN A   1       1.773 -14.033 -21.586  0.00  0.00    +0.154 C 
BRANCH   6   7
ATOM      7  N   ASN A   1       2.732 -14.141 -20.492  0.00  0.00    -0.238 NA
ATOM      8  H   ASN A   1       2.383 -14.174 -19.513  0.00  0.00    +0.142 HD
ENDBRANCH   6   7
BRANCH   6   9
ATOM      9  CB  ASN A   1       0.937 -15.311 -21.697  0.00  0.00    +0.111 C 
BRANCH   9  10
ATOM     10  CG  ASN A   1       1.723 -16.474 -22.264  0.00  0.00    +0.221 C 
ATOM     11  OD1 ASN A   1       1.926 -17.486 -21.593  0.00  0.00    -0.275 OA
ATOM     12  ND2 ASN A   1       2.166 -16.338 -23.509  0.00  0.00    -0.329 N 
ATOM     13 HD21 ASN A   1       2.709 -17.105 -23.955  0.00  0.00    +0.145 HD
ATOM     14 HD22 ASN A   1       1.970 -15.464 -24.038  0.00  0.00    +0.145 HD
ENDBRANCH   9  10
ENDBRANCH   6   9
ENDBRANCH   2   6
ENDBRANCH   1   4
BRANCH   1  15
ATOM     15  C   ARG A   2      -1.900 -11.863 -22.330  0.00  0.00    +0.241 C 
ATOM     16  N   LEU A   3      -2.787 -11.129 -21.668  0.00  0.00    -0.298 N 
ATOM     17  H   LEU A   3      -2.594 -10.120 -21.507  0.00  0.00    +0.150 HD
ATOM     18  O   ARG A   2      -2.136 -13.010 -22.709  0.00  0.00    -0.273 OA
BRANCH  16  19
ATOM     19  CA  LEU A   3      -4.026 -11.708 -21.162  0.00  0.00    +0.137 C 
BRANCH  19  20
ATOM     20  C   LEU A   3      -5.265 -11.213 -21.896  0.00  0.00    +0.227 C 
ATOM     21  O   LEU A   3      -5.340 -10.055 -22.302  0.00  0.00    -0.286 OA
ENDBRANCH  19  20
BRANCH  19  22
ATOM     22  CB  LEU A   3      -4.173 -11.395 -19.671  0.00  0.00    +0.028 C 
BRANCH  22  23
ATOM     23  CG  LEU A   3      -2.956 -11.666 -18.782  0.00  0.00    +0.002 C 
ATOM     24  CD2 LEU A   3      -3.158 -11.054 -17.403  0.00  0.00    +0.000 C 
ATOM     25  CD1 LEU A   3      -2.685 -13.161 -18.681  0.00  0.00    +0.000 C 
ENDBRANCH  22  23
ENDBRANCH  19  22
ENDBRANCH  16  19
ENDBRANCH   1  15
BRANCH   1  26
ATOM     26  CB  ARG A   2      -0.543 -10.504 -23.957  0.00  0.00    +0.033 C 
BRANCH  26  27
ATOM     27  CG  ARG A   2      -0.805  -9.015 -23.863  0.00  0.00    +0.045 C 
BRANCH  27  28
ATOM     28  CD  ARG A   2      -0.032  -8.263 -24.930  0.00  0.00    +0.174 C 
BRANCH  28  29
ATOM     29  NE  ARG A   2       1.403  -8.521 -24.847  0.00  0.00    -0.265 N 
ATOM     30  CZ  ARG A   2       2.235  -7.871 -24.040  0.00  0.00    +0.342 C 
ATOM     31  NH2 ARG A   2       1.777  -6.924 -23.233  0.00  0.00    -0.292 N 
ATOM     32 HH21 ARG A   2       2.431  -6.417 -22.603  0.00  0.00    +0.255 HD
ATOM     33 HH22 ARG A   2       0.764  -6.688 -23.230  0.00  0.00    +0.255 HD
ATOM     34  NH1 ARG A   2       3.525  -8.173 -24.034  0.00  0.00    -0.292 N 
ATOM     35 HH11 ARG A   2       4.175  -7.664 -23.402  0.00  0.00    +0.255 HD
ATOM     36 HH12 ARG A   2       3.887  -8.919 -24.661  0.00  0.00    +0.255 HD
ATOM     37  HE  ARG A   2       1.800  -9.262 -25.460  0.00  0.00    +0.259 HD
ENDBRANCH  28  29
ENDBRANCH  27  28
ENDBRANCH  26  27
ENDBRANCH   1  26
TORSDOF 14
REMARK  Name = ../refined-set-2016/4xmb/4xmb_pocket.pdb
REMARK  246 active torsions:
REMARK  status: ('A' for Active; 'I' for Inactive)
REMARK    1  A    between atoms: _1  and  _3
REMARK    2  A    between atoms: _3  and  _4
REMARK    3  A    between atoms: _6  and  _8
REMARK    4  A    between atoms: _8  and  _9
REMARK    5  A    between atoms: _8  and  _11
REMARK    6  A    between atoms: _11  and  _12
REMARK    7  A    between atoms: _17  and  _18
REMARK    8  A    between atoms: _20  and  _22
REMARK    9  A    between atoms: _22  and  _23
REMARK   10  A    between atoms: _22  and  _25
REMARK   11  A    between atoms: _25  and  _26
REMARK   12  A    between atoms: _32  and  _34
REMARK   13  A    between atoms: _34  and  _35
REMARK   14  A    between atoms: _34  and  _37
REMARK   15  A    between atoms: _37  and  _38
REMARK   16  A    between atoms: _38  and  _39
REMARK   17  A    between atoms: _39  and  _40
REMARK   18  A    between atoms: _49  and  _51
REMARK   19  A    between atoms: _51  and  _52
REMARK   20  A    between atoms: _51  and  _54
REMARK   21  A    between atoms: _54  and  _55
REMARK   22  A    between atoms: _55  and  _56
REMARK   23  A    between atoms: _61  and  _63
REMARK   24  A    between atoms: _63  and  _64
REMARK   25  A    between atoms: _63  and  _66
REMARK   26  A    between atoms: _66  and  _67
REMARK   27  A    between atoms: _69  and  _71
REMARK   28  A    between atoms: _71  and  _72
REMARK   29  A    between atoms: _71  and  _74
REMARK   30  A    between atoms: _74  and  _75
REMARK   31  A    between atoms: _78  and  _80
REMARK   32  A    between atoms: _80  and  _81
REMARK   33  A    between atoms: _80  and  _83
REMARK   34  A    between atoms: _83  and  _84
REMARK   35  A    between atoms: _84  and  _85
REMARK   36  A    between atoms: _85  and  _86
REMARK   37  A    between atoms: _95  and  _97
REMARK   38  A    between atoms: _97  and  _98
REMARK   39  A    between atoms: _97  and  _100
REMARK   40  A    between atoms: _100  and  _101
REMARK   41  A    between atoms: _103  and  _105
REMARK   42  A    between atoms: _105  and  _106
REMARK   43  A    between atoms: _108  and  _110
REMARK   44  A    between atoms: _110  and  _111
REMARK   45  A    between atoms: _110  and  _113
REMARK   46  A    between atoms: _113  and  _114
REMARK   47  A    between atoms: _117  and  _119
REMARK   48  A    between atoms: _119  and  _120
REMARK   49  A    between atoms: _122  and  _124
REMARK   50  A    between atoms: _124  and  _125
REMARK   51  A    between atoms: _127  and  _129
REMARK   52  A    between atoms: _129  and  _130
REMARK   53  A    between atoms: _129  and  _132
REMARK   54  A    between atoms: _132  and  _133
REMARK   55  A    between atoms: _133  and  _134
REMARK   56  A    between atoms: _134  and  _135
REMARK   57  A    between atoms: _144  and  _146
REMARK   58  A    between atoms: _146  and  _147
REMARK   59  A    between atoms: _146  and  _149
REMARK   60  A    between atoms: _149  and  _150
REMARK   61  A    between atoms: _155  and  _157
REMARK   62  A    between atoms: _157  and  _158
REMARK   63  A    between atoms: _157  and  _160
REMARK   64  A    between atoms: _160  and  _161
REMARK   65  A    between atoms: _164  and  _166
REMARK   66  A    between atoms: _166  and  _167
REMARK   67  A    between atoms: _166  and  _169
REMARK   68  A    between atoms: _169  and  _170
REMARK   69  A    between atoms: _173  and  _175
REMARK   70  A    between atoms: _175  and  _176
REMARK   71  A    between atoms: _175  and  _178
REMARK   72  A    between atoms: _178  and  _179
REMARK   73  A    between atoms: _181  and  _183
REMARK   74  A    between atoms: _183  and  _184
REMARK   75  A    between atoms: _183  and  _186
REMARK   76  A    between atoms: _186  and  _187
REMARK   77  A    between atoms: _187  and  _188
REMARK   78  A    between atoms: _188  and  _189
REMARK   79  A    between atoms: _198  and  _200
REMARK   80  A    between atoms: _200  and  _201
REMARK   81  A    between atoms: _200  and  _203
REMARK   82  A    between atoms: _203  and  _204
REMARK   83  A    between atoms: _209  and  _211
REMARK   84  A    between atoms: _211  and  _212
REMARK   85  A    between atoms: _211  and  _214
REMARK   86  A    between atoms: _214  and  _215
REMARK   87  A    between atoms: _215  and  _216
REMARK   88  A    between atoms: _216  and  _217
REMARK   89  A    between atoms: _226  and  _228
REMARK   90  A    between atoms: _228  and  _229
REMARK   91  A    between atoms: _228  and  _231
REMARK   92  A    between atoms: _231  and  _232
REMARK   93  A    between atoms: _235  and  _237
REMARK   94  A    between atoms: _237  and  _238
REMARK   95  A    between atoms: _240  and  _242
REMARK   96  A    between atoms: _242  and  _243
REMARK   97  A    between atoms: _242  and  _245
REMARK   98  A    between atoms: _245  and  _246
REMARK   99  A    between atoms: _248  and  _250
REMARK  100  A    between atoms: _250  and  _251
REMARK  101  A    between atoms: _250  and  _253
REMARK  102  A    between atoms: _253  and  _254
REMARK  103  A    between atoms: _259  and  _261
REMARK  104  A    between atoms: _261  and  _262
REMARK  105  A    between atoms: _261  and  _264
REMARK  106  A    between atoms: _264  and  _265
REMARK  107  A    between atoms: _265  and  _266
REMARK  108  A    between atoms: _266  and  _267
REMARK  109  A    between atoms: _276  and  _278
REMARK  110  A    between atoms: _278  and  _279
REMARK  111  A    between atoms: _278  and  _281
REMARK  112  A    between atoms: _281  and  _282
REMARK  113  A    between atoms: _285  and  _287
REMARK  114  A    between atoms: _287  and  _288
REMARK  115  A    between atoms: _290  and  _292
REMARK  116  A    between atoms: _292  and  _293
REMARK  117  A    between atoms: _292  and  _295
REMARK  118  A    between atoms: _298  and  _300
REMARK  119  A    between atoms: _300  and  _301
REMARK  120  A    between atoms: _303  and  _305
REMARK  121  A    between atoms: _305  and  _306
REMARK  122  A    between atoms: _308  and  _310
REMARK  123  A    between atoms: _310  and  _311
REMARK  124  A    between atoms: _310  and  _313
REMARK  125  A    between atoms: _313  and  _314
REMARK  126  A    between atoms: _320  and  _322
REMARK  127  A    between atoms: _322  and  _323
REMARK  128  A    between atoms: _322  and  _325
REMARK  129  A    between atoms: _325  and  _326
REMARK  130  A    between atoms: _329  and  _331
REMARK  131  A    between atoms: _331  and  _332
REMARK  132  A    between atoms: _334  and  _336
REMARK  133  A    between atoms: _336  and  _337
REMARK  134  A    between atoms: _336  and  _339
REMARK  135  A    between atoms: _339  and  _340
REMARK  136  A    between atoms: _345  and  _347
REMARK  137  A    between atoms: _347  and  _348
REMARK  138  A    between atoms: _347  and  _350
REMARK  139  A    between atoms: _350  and  _351
REMARK  140  A    between atoms: _351  and  _352
REMARK  141  A    between atoms: _352  and  _353
REMARK  142  A    between atoms: _362  and  _364
REMARK  143  A    between atoms: _364  and  _365
REMARK  144  A    between atoms: _364  and  _367
REMARK  145  A    between atoms: _367  and  _368
REMARK  146  A    between atoms: _371  and  _373
REMARK  147  A    between atoms: _373  and  _374
REMARK  148  A    between atoms: _373  and  _376
REMARK  149  A    between atoms: _376  and  _377
REMARK  150  A    between atoms: _377  and  _378
REMARK  151  A    between atoms: _378  and  _379
REMARK  152  A    between atoms: _388  and  _390
REMARK  153  A    between atoms: _390  and  _391
REMARK  154  A    between atoms: _390  and  _393
REMARK  155  A    between atoms: _393  and  _394
REMARK  156  A    between atoms: _396  and  _398
REMARK  157  A    between atoms: _398  and  _399
REMARK  158  A    between atoms: _401  and  _403
REMARK  159  A    between atoms: _403  and  _404
REMARK  160  A    between atoms: _407  and  _409
REMARK  161  A    between atoms: _409  and  _410
REMARK  162  A    between atoms: _412  and  _414
REMARK  163  A    between atoms: _414  and  _415
REMARK  164  A    between atoms: _414  and  _417
REMARK  165  A    between atoms: _417  and  _418
REMARK  166  A    between atoms: _423  and  _424
REMARK  167  A    between atoms: _426  and  _428
REMARK  168  A    between atoms: _428  and  _429
REMARK  169  A    between atoms: _428  and  _431
REMARK  170  A    between atoms: _431  and  _432
REMARK  171  A    between atoms: _435  and  _437
REMARK  172  A    between atoms: _437  and  _438
REMARK  173  A    between atoms: _440  and  _442
REMARK  174  A    between atoms: _442  and  _443
REMARK  175  A    between atoms: _442  and  _445
REMARK  176  A    between atoms: _445  and  _446
REMARK  177  A    between atoms: _446  and  _447
REMARK  178  A    between atoms: _452  and  _454
REMARK  179  A    between atoms: _454  and  _455
REMARK  180  A    between atoms: _454  and  _457
REMARK  181  A    between atoms: _457  and  _458
REMARK  182  A    between atoms: _461  and  _463
REMARK  183  A    between atoms: _463  and  _464
REMARK  184  A    between atoms: _463  and  _466
REMARK  185  A    between atoms: _466  and  _467
REMARK  186  A    between atoms: _467  and  _468
REMARK  187  A    between atoms: _473  and  _475
REMARK  188  A    between atoms: _475  and  _476
REMARK  189  A    between atoms: _475  and  _478
REMARK  190  A    between atoms: _478  and  _479
REMARK  191  A    between atoms: _482  and  _484
REMARK  192  A    between atoms: _484  and  _485
REMARK  193  A    between atoms: _484  and  _487
REMARK  194  A    between atoms: _487  and  _488
REMARK  195  A    between atoms: _488  and  _489
REMARK  196  A    between atoms: _489  and  _490
REMARK  197  A    between atoms: _499  and  _501
REMARK  198  A    between atoms: _501  and  _502
REMARK  199  A    between atoms: _501  and  _504
REMARK  200  A    between atoms: _504  and  _505
REMARK  201  A    between atoms: _507  and  _509
REMARK  202  A    between atoms: _509  and  _510
REMARK  203  A    between atoms: _513  and  _515
REMARK  204  A    between atoms: _515  and  _516
REMARK  205  A    between atoms: _515  and  _518
REMARK  206  A    between atoms: _518  and  _519
REMARK  207  A    between atoms: _522  and  _524
REMARK  208  A    between atoms: _524  and  _525
REMARK  209  A    between atoms: _527  and  _529
REMARK  210  A    between atoms: _529  and  _530
REMARK  211  A    between atoms: _529  and  _532
REMARK  212  A    between atoms: _532  and  _533
REMARK  213  A    between atoms: _538  and  _539
REMARK  214  A    between atoms: _541  and  _543
REMARK  215  A    between atoms: _543  and  _544
REMARK  216  A    between atoms: _543  and  _546
REMARK  217  A    between atoms: _546  and  _547
REMARK  218  A    between atoms: _550  and  _552
REMARK  219  A    between atoms: _552  and  _553
REMARK  220  A    between atoms: _555  and  _557
REMARK  221  A    between atoms: _557  and  _558
REMARK  222  A    between atoms: _557  and  _560
REMARK  223  A    between atoms: _560  and  _561
REMARK  224  A    between atoms: _566  and  _568
REMARK  225  A    between atoms: _568  and  _569
REMARK  226  A    between atoms: _568  and  _571
REMARK  227  A    between atoms: _571  and  _572
REMARK  228  A    between atoms: _575  and  _577
REMARK  229  A    between atoms: _577  and  _578
REMARK  230  A    between atoms: _577  and  _580
REMARK  231  A    between atoms: _580  and  _581
REMARK  232  A    between atoms: _587  and  _589
REMARK  233  A    between atoms: _589  and  _590
REMARK  234  A    between atoms: _589  and  _592
REMARK  235  A    between atoms: _592  and  _593
REMARK  236  A    between atoms: _593  and  _594
REMARK  237  A    between atoms: _594  and  _595
REMARK  238  A    between atoms: _604  and  _606
REMARK  239  A    between atoms: _606  and  _607
REMARK  240  A    between atoms: _606  and  _609
REMARK  241  A    between atoms: _609  and  _610
REMARK  242  A    between atoms: _612  and  _614
REMARK  243  A    between atoms: _614  and  _615
REMARK  244  A    between atoms: _617  and  _619
REMARK  245  A    between atoms: _619  and  _620
REMARK  246  A    between atoms: _619  and  _622
REMARK                            x       y       z     vdW  Elec       q    Type
REMARK                         _______ _______ _______ _____ _____    ______ ____
ROOT
ATOM      1  C   ARG A   1      -4.346  -6.553 -23.217  0.00  0.00    +0.238 C 
ATOM      2  O   ARG A   1      -4.652  -6.990 -22.106  0.00  0.00    -0.274 OA
ATOM      3  N   SER A   2      -3.289  -5.777 -23.425  0.00  0.00    -0.295 N 
ATOM      4  H   SER A   2      -2.950  -5.635 -24.398  0.00  0.00    +0.150 HD
ENDROOT
BRANCH   1   5
ATOM      5  CA  ARG A   1      -5.186  -6.881 -24.448  0.00  0.00    +0.145 C 
BRANCH   5   6
ATOM      6  N   ARG A   1      -5.452  -8.307 -24.606  0.00  0.00    -0.238 NA
ATOM      7  H   ARG A   1      -5.671  -8.881 -23.767  0.00  0.00    +0.142 HD
ENDBRANCH   5   6
BRANCH   5   8
ATOM      8  CB  ARG A   1      -6.499  -6.100 -24.359  0.00  0.00    +0.030 C 
BRANCH   8   9
ATOM      9  CG  ARG A   1      -7.431  -6.266 -25.543  0.00  0.00    +0.045 C 
BRANCH   9  10
ATOM     10  CD  ARG A   1      -8.675  -5.413 -25.356  0.00  0.00    +0.174 C 
BRANCH  10  11
ATOM     11  NE  ARG A   1      -9.693  -5.694 -26.362  0.00  0.00    -0.265 N 
ATOM     12  HE  ARG A   1     -10.369  -6.460 -26.169  0.00  0.00    +0.259 HD
ATOM     13  CZ  ARG A   1      -9.812  -5.035 -27.508  0.00  0.00    +0.342 C 
ATOM     14  NH2 ARG A   1      -8.974  -4.051 -27.797  0.00  0.00    -0.292 N 
ATOM     15 HH21 ARG A   1      -8.222  -3.794 -27.126  0.00  0.00    +0.255 HD
ATOM     16 HH22 ARG A   1      -9.068  -3.535 -28.695  0.00  0.00    +0.255 HD
ATOM     17  NH1 ARG A   1     -10.771  -5.359 -28.364  0.00  0.00    -0.292 N 
ATOM     18 HH11 ARG A   1     -11.431  -6.130 -28.138  0.00  0.00    +0.255 HD
ATOM     19 HH12 ARG A   1     -10.863  -4.842 -29.262  0.00  0.00    +0.255 HD
ENDBRANCH  10  11
ENDBRANCH   9  10
ENDBRANCH   8   9
ENDBRANCH   5   8
ENDBRANCH   1   5
BRANCH   3  20
ATOM     20  CA  SER A   2      -2.590  -5.118 -22.328  0.00  0.00    +0.178 C 
BRANCH  20  21
ATOM     21  C   SER A   2      -2.474  -3.638 -22.675  0.00  0.00    +0.243 C 
ATOM     22  N   GLY A   3      -2.399  -2.785 -21.662  0.00  0.00    -0.295 N 
ATOM     23  H   GLY A   3      -2.374  -3.146 -20.687  0.00  0.00    +0.150 HD
ATOM     24  O   SER A   2      -2.466  -3.274 -23.850  0.00  0.00    -0.273 OA
BRANCH  22  25
ATOM     25  CA  GLY A   3      -2.352  -1.354 -21.898  0.00  0.00    +0.176 C 
BRANCH  25  26
ATOM     26  C   GLY A   3      -3.572  -0.890 -22.670  0.00  0.00    +0.243 C 
ATOM     27  N   ALA A   4      -4.727  -1.438 -22.310  0.00  0.00    -0.298 N 
ATOM     28  H   ALA A   4      -4.733  -2.156 -21.557  0.00  0.00    +0.150 HD
ATOM     29  O   GLY A   3      -3.477  -0.060 -23.574  0.00  0.00    -0.273 OA
BRANCH  27  30
ATOM     30  CA  ALA A   4      -5.985  -1.063 -22.939  0.00  0.00    +0.137 C 
ATOM     31  CB  ALA A   4      -6.887  -2.279 -23.074  0.00  0.00    +0.030 C 
BRANCH  30  32
ATOM     32  C   ALA A   4      -6.694   0.034 -22.150  0.00  0.00    +0.227 C 
ATOM     33  O   ALA A   4      -6.321   0.342 -21.015  0.00  0.00    -0.286 OA
ENDBRANCH  30  32
ENDBRANCH  27  30
ENDBRANCH  25  26
ENDBRANCH  22  25
ENDBRANCH  20  21
BRANCH  20  34
ATOM     34  CB  SER A   2      -1.208  -5.733 -22.087  0.00  0.00    +0.166 C 
BRANCH  34  35
ATOM     35  OG  SER A   2      -0.319  -5.452 -23.154  0.00  0.00    -0.380 OA
ATOM     36  H   SER A   2      -0.214  -4.472 -23.245  0.00  0.00    +0.211 HD
ENDBRANCH  34  35
ENDBRANCH  20  34
ENDBRANCH   3  20
TORSDOF 14
REMARK  Name = ../refined-set-2016/4xmb/4xmb_pocket.pdb
REMARK  246 active torsions:
REMARK  status: ('A' for Active; 'I' for Inactive)
REMARK    1  A    between atoms: _1  and  _3
REMARK    2  A    between atoms: _3  and  _4
REMARK    3  A    between atoms: _6  and  _8
REMARK    4  A    between atoms: _8  and  _9
REMARK    5  A    between atoms: _8  and  _11
REMARK    6  A    between atoms: _11  and  _12
REMARK    7  A    between atoms: _17  and  _18
REMARK    8  A    between atoms: _20  and  _22
REMARK    9  A    between atoms: _22  and  _23
REMARK   10  A    between atoms: _22  and  _25
REMARK   11  A    between atoms: _25  and  _26
REMARK   12  A    between atoms: _32  and  _34
REMARK   13  A    between atoms: _34  and  _35
REMARK   14  A    between atoms: _34  and  _37
REMARK   15  A    between atoms: _37  and  _38
REMARK   16  A    between atoms: _38  and  _39
REMARK   17  A    between atoms: _39  and  _40
REMARK   18  A    between atoms: _49  and  _51
REMARK   19  A    between atoms: _51  and  _52
REMARK   20  A    between atoms: _51  and  _54
REMARK   21  A    between atoms: _54  and  _55
REMARK   22  A    between atoms: _55  and  _56
REMARK   23  A    between atoms: _61  and  _63
REMARK   24  A    between atoms: _63  and  _64
REMARK   25  A    between atoms: _63  and  _66
REMARK   26  A    between atoms: _66  and  _67
REMARK   27  A    between atoms: _69  and  _71
REMARK   28  A    between atoms: _71  and  _72
REMARK   29  A    between atoms: _71  and  _74
REMARK   30  A    between atoms: _74  and  _75
REMARK   31  A    between atoms: _78  and  _80
REMARK   32  A    between atoms: _80  and  _81
REMARK   33  A    between atoms: _80  and  _83
REMARK   34  A    between atoms: _83  and  _84
REMARK   35  A    between atoms: _84  and  _85
REMARK   36  A    between atoms: _85  and  _86
REMARK   37  A    between atoms: _95  and  _97
REMARK   38  A    between atoms: _97  and  _98
REMARK   39  A    between atoms: _97  and  _100
REMARK   40  A    between atoms: _100  and  _101
REMARK   41  A    between atoms: _103  and  _105
REMARK   42  A    between atoms: _105  and  _106
REMARK   43  A    between atoms: _108  and  _110
REMARK   44  A    between atoms: _110  and  _111
REMARK   45  A    between atoms: _110  and  _113
REMARK   46  A    between atoms: _113  and  _114
REMARK   47  A    between atoms: _117  and  _119
REMARK   48  A    between atoms: _119  and  _120
REMARK   49  A    between atoms: _122  and  _124
REMARK   50  A    between atoms: _124  and  _125
REMARK   51  A    between atoms: _127  and  _129
REMARK   52  A    between atoms: _129  and  _130
REMARK   53  A    between atoms: _129  and  _132
REMARK   54  A    between atoms: _132  and  _133
REMARK   55  A    between atoms: _133  and  _134
REMARK   56  A    between atoms: _134  and  _135
REMARK   57  A    between atoms: _144  and  _146
REMARK   58  A    between atoms: _146  and  _147
REMARK   59  A    between atoms: _146  and  _149
REMARK   60  A    between atoms: _149  and  _150
REMARK   61  A    between atoms: _155  and  _157
REMARK   62  A    between atoms: _157  and  _158
REMARK   63  A    between atoms: _157  and  _160
REMARK   64  A    between atoms: _160  and  _161
REMARK   65  A    between atoms: _164  and  _166
REMARK   66  A    between atoms: _166  and  _167
REMARK   67  A    between atoms: _166  and  _169
REMARK   68  A    between atoms: _169  and  _170
REMARK   69  A    between atoms: _173  and  _175
REMARK   70  A    between atoms: _175  and  _176
REMARK   71  A    between atoms: _175  and  _178
REMARK   72  A    between atoms: _178  and  _179
REMARK   73  A    between atoms: _181  and  _183
REMARK   74  A    between atoms: _183  and  _184
REMARK   75  A    between atoms: _183  and  _186
REMARK   76  A    between atoms: _186  and  _187
REMARK   77  A    between atoms: _187  and  _188
REMARK   78  A    between atoms: _188  and  _189
REMARK   79  A    between atoms: _198  and  _200
REMARK   80  A    between atoms: _200  and  _201
REMARK   81  A    between atoms: _200  and  _203
REMARK   82  A    between atoms: _203  and  _204
REMARK   83  A    between atoms: _209  and  _211
REMARK   84  A    between atoms: _211  and  _212
REMARK   85  A    between atoms: _211  and  _214
REMARK   86  A    between atoms: _214  and  _215
REMARK   87  A    between atoms: _215  and  _216
REMARK   88  A    between atoms: _216  and  _217
REMARK   89  A    between atoms: _226  and  _228
REMARK   90  A    between atoms: _228  and  _229
REMARK   91  A    between atoms: _228  and  _231
REMARK   92  A    between atoms: _231  and  _232
REMARK   93  A    between atoms: _235  and  _237
REMARK   94  A    between atoms: _237  and  _238
REMARK   95  A    between atoms: _240  and  _242
REMARK   96  A    between atoms: _242  and  _243
REMARK   97  A    between atoms: _242  and  _245
REMARK   98  A    between atoms: _245  and  _246
REMARK   99  A    between atoms: _248  and  _250
REMARK  100  A    between atoms: _250  and  _251
REMARK  101  A    between atoms: _250  and  _253
REMARK  102  A    between atoms: _253  and  _254
REMARK  103  A    between atoms: _259  and  _261
REMARK  104  A    between atoms: _261  and  _262
REMARK  105  A    between atoms: _261  and  _264
REMARK  106  A    between atoms: _264  and  _265
REMARK  107  A    between atoms: _265  and  _266
REMARK  108  A    between atoms: _266  and  _267
REMARK  109  A    between atoms: _276  and  _278
REMARK  110  A    between atoms: _278  and  _279
REMARK  111  A    between atoms: _278  and  _281
REMARK  112  A    between atoms: _281  and  _282
REMARK  113  A    between atoms: _285  and  _287
REMARK  114  A    between atoms: _287  and  _288
REMARK  115  A    between atoms: _290  and  _292
REMARK  116  A    between atoms: _292  and  _293
REMARK  117  A    between atoms: _292  and  _295
REMARK  118  A    between atoms: _298  and  _300
REMARK  119  A    between atoms: _300  and  _301
REMARK  120  A    between atoms: _303  and  _305
REMARK  121  A    between atoms: _305  and  _306
REMARK  122  A    between atoms: _308  and  _310
REMARK  123  A    between atoms: _310  and  _311
REMARK  124  A    between atoms: _310  and  _313
REMARK  125  A    between atoms: _313  and  _314
REMARK  126  A    between atoms: _320  and  _322
REMARK  127  A    between atoms: _322  and  _323
REMARK  128  A    between atoms: _322  and  _325
REMARK  129  A    between atoms: _325  and  _326
REMARK  130  A    between atoms: _329  and  _331
REMARK  131  A    between atoms: _331  and  _332
REMARK  132  A    between atoms: _334  and  _336
REMARK  133  A    between atoms: _336  and  _337
REMARK  134  A    between atoms: _336  and  _339
REMARK  135  A    between atoms: _339  and  _340
REMARK  136  A    between atoms: _345  and  _347
REMARK  137  A    between atoms: _347  and  _348
REMARK  138  A    between atoms: _347  and  _350
REMARK  139  A    between atoms: _350  and  _351
REMARK  140  A    between atoms: _351  and  _352
REMARK  141  A    between atoms: _352  and  _353
REMARK  142  A    between atoms: _362  and  _364
REMARK  143  A    between atoms: _364  and  _365
REMARK  144  A    between atoms: _364  and  _367
REMARK  145  A    between atoms: _367  and  _368
REMARK  146  A    between atoms: _371  and  _373
REMARK  147  A    between atoms: _373  and  _374
REMARK  148  A    between atoms: _373  and  _376
REMARK  149  A    between atoms: _376  and  _377
REMARK  150  A    between atoms: _377  and  _378
REMARK  151  A    between atoms: _378  and  _379
REMARK  152  A    between atoms: _388  and  _390
REMARK  153  A    between atoms: _390  and  _391
REMARK  154  A    between atoms: _390  and  _393
REMARK  155  A    between atoms: _393  and  _394
REMARK  156  A    between atoms: _396  and  _398
REMARK  157  A    between atoms: _398  and  _399
REMARK  158  A    between atoms: _401  and  _403
REMARK  159  A    between atoms: _403  and  _404
REMARK  160  A    between atoms: _407  and  _409
REMARK  161  A    between atoms: _409  and  _410
REMARK  162  A    between atoms: _412  and  _414
REMARK  163  A    between atoms: _414  and  _415
REMARK  164  A    between atoms: _414  and  _417
REMARK  165  A    between atoms: _417  and  _418
REMARK  166  A    between atoms: _423  and  _424
REMARK  167  A    between atoms: _426  and  _428
REMARK  168  A    between atoms: _428  and  _429
REMARK  169  A    between atoms: _428  and  _431
REMARK  170  A    between atoms: _431  and  _432
REMARK  171  A    between atoms: _435  and  _437
REMARK  172  A    between atoms: _437  and  _438
REMARK  173  A    between atoms: _440  and  _442
REMARK  174  A    between atoms: _442  and  _443
REMARK  175  A    between atoms: _442  and  _445
REMARK  176  A    between atoms: _445  and  _446
REMARK  177  A    between atoms: _446  and  _447
REMARK  178  A    between atoms: _452  and  _454
REMARK  179  A    between atoms: _454  and  _455
REMARK  180  A    between atoms: _454  and  _457
REMARK  181  A    between atoms: _457  and  _458
REMARK  182  A    between atoms: _461  and  _463
REMARK  183  A    between atoms: _463  and  _464
REMARK  184  A    between atoms: _463  and  _466
REMARK  185  A    between atoms: _466  and  _467
REMARK  186  A    between atoms: _467  and  _468
REMARK  187  A    between atoms: _473  and  _475
REMARK  188  A    between atoms: _475  and  _476
REMARK  189  A    between atoms: _475  and  _478
REMARK  190  A    between atoms: _478  and  _479
REMARK  191  A    between atoms: _482  and  _484
REMARK  192  A    between atoms: _484  and  _485
REMARK  193  A    between atoms: _484  and  _487
REMARK  194  A    between atoms: _487  and  _488
REMARK  195  A    between atoms: _488  and  _489
REMARK  196  A    between atoms: _489  and  _490
REMARK  197  A    between atoms: _499  and  _501
REMARK  198  A    between atoms: _501  and  _502
REMARK  199  A    between atoms: _501  and  _504
REMARK  200  A    between atoms: _504  and  _505
REMARK  201  A    between atoms: _507  and  _509
REMARK  202  A    between atoms: _509  and  _510
REMARK  203  A    between atoms: _513  and  _515
REMARK  204  A    between atoms: _515  and  _516
REMARK  205  A    between atoms: _515  and  _518
REMARK  206  A    between atoms: _518  and  _519
REMARK  207  A    between atoms: _522  and  _524
REMARK  208  A    between atoms: _524  and  _525
REMARK  209  A    between atoms: _527  and  _529
REMARK  210  A    between atoms: _529  and  _530
REMARK  211  A    between atoms: _529  and  _532
REMARK  212  A    between atoms: _532  and  _533
REMARK  213  A    between atoms: _538  and  _539
REMARK  214  A    between atoms: _541  and  _543
REMARK  215  A    between atoms: _543  and  _544
REMARK  216  A    between atoms: _543  and  _546
REMARK  217  A    between atoms: _546  and  _547
REMARK  218  A    between atoms: _550  and  _552
REMARK  219  A    between atoms: _552  and  _553
REMARK  220  A    between atoms: _555  and  _557
REMARK  221  A    between atoms: _557  and  _558
REMARK  222  A    between atoms: _557  and  _560
REMARK  223  A    between atoms: _560  and  _561
REMARK  224  A    between atoms: _566  and  _568
REMARK  225  A    between atoms: _568  and  _569
REMARK  226  A    between atoms: _568  and  _571
REMARK  227  A    between atoms: _571  and  _572
REMARK  228  A    between atoms: _575  and  _577
REMARK  229  A    between atoms: _577  and  _578
REMARK  230  A    between atoms: _577  and  _580
REMARK  231  A    between atoms: _580  and  _581
REMARK  232  A    between atoms: _587  and  _589
REMARK  233  A    between atoms: _589  and  _590
REMARK  234  A    between atoms: _589  and  _592
REMARK  235  A    between atoms: _592  and  _593
REMARK  236  A    between atoms: _593  and  _594
REMARK  237  A    between atoms: _594  and  _595
REMARK  238  A    between atoms: _604  and  _606
REMARK  239  A    between atoms: _606  and  _607
REMARK  240  A    between atoms: _606  and  _609
REMARK  241  A    between atoms: _609  and  _610
REMARK  242  A    between atoms: _612  and  _614
REMARK  243  A    between atoms: _614  and  _615
REMARK  244  A    between atoms: _617  and  _619
REMARK  245  A    between atoms: _619  and  _620
REMARK  246  A    between atoms: _619  and  _622
REMARK                            x       y       z     vdW  Elec       q    Type
REMARK                         _______ _______ _______ _____ _____    ______ ____
ROOT
ATOM      1  CA  GLN A   5       1.939  -8.183 -31.893  0.00  0.00    +0.149 C 
ENDROOT
BRANCH   1   2
ATOM      2  C   GLN A   5       1.610  -6.837 -32.528  0.00  0.00    +0.241 C 
ATOM      3  N   ASP A   6       0.401  -6.340 -32.286  0.00  0.00    -0.297 N 
ATOM      4  H   ASP A   6      -0.264  -6.877 -31.694  0.00  0.00    +0.150 HD
ATOM      5  O   GLN A   5       2.438  -6.260 -33.229  0.00  0.00    -0.273 OA
BRANCH   3   6
ATOM      6  CA  ASP A   6      -0.008  -5.053 -32.838  0.00  0.00    +0.160 C 
BRANCH   6   7
ATOM      7  C   ASP A   6      -0.768  -4.218 -31.819  0.00  0.00    +0.241 C 
ATOM      8  O   ASP A   6      -1.371  -4.753 -30.890  0.00  0.00    -0.273 OA
ATOM      9  N   GLN A   7      -0.738  -2.902 -32.001  0.00  0.00    -0.297 N 
ATOM     10  H   GLN A   7      -0.058  -2.494 -32.673  0.00  0.00    +0.150 HD
BRANCH   9  11
ATOM     11  CA  GLN A   7      -1.643  -2.023 -31.274  0.00  0.00    +0.149 C 
BRANCH  11  12
ATOM     12  C   GLN A   7      -3.035  -2.186 -31.861  0.00  0.00    +0.241 C 
ATOM     13  N   LEU A   8      -4.053  -2.023 -31.023  0.00  0.00    -0.298 N 
ATOM     14  H   LEU A   8      -3.871  -1.654 -30.068  0.00  0.00    +0.150 HD
ATOM     15  O   GLN A   7      -3.183  -2.455 -33.053  0.00  0.00    -0.273 OA
BRANCH  13  16
ATOM     16  CA  LEU A   8      -5.419  -2.350 -31.412  0.00  0.00    +0.137 C 
BRANCH  16  17
ATOM     17  C   LEU A   8      -6.316  -1.127 -31.550  0.00  0.00    +0.227 C 
ATOM     18  O   LEU A   8      -6.126  -0.123 -30.865  0.00  0.00    -0.286 OA
ENDBRANCH  16  17
BRANCH  16  19
ATOM     19  CB  LEU A   8      -6.031  -3.309 -30.390  0.00  0.00    +0.028 C 
BRANCH  19  20
ATOM     20  CG  LEU A   8      -5.246  -4.591 -30.111  0.00  0.00    +0.002 C 
ATOM     21  CD2 LEU A   8      -5.852  -5.333 -28.931  0.00  0.00    +0.000 C 
ATOM     22  CD1 LEU A   8      -5.209  -5.480 -31.344  0.00  0.00    +0.000 C 
ENDBRANCH  19  20
ENDBRANCH  16  19
ENDBRANCH  13  16
ENDBRANCH  11  12
BRANCH  11  23
ATOM     23  CB  GLN A   7      -1.196  -0.564 -31.362  0.00  0.00    +0.039 C 
BRANCH  23  24
ATOM     24  CG  GLN A   7      -0.276  -0.128 -30.235  0.00  0.00    +0.087 C 
BRANCH  24  25
ATOM     25  CD  GLN A   7       1.134  -0.646 -30.399  0.00  0.00    +0.219 C 
ATOM     26  NE2 GLN A   7       1.947  -0.481 -29.364  0.00  0.00    -0.329 N 
ATOM     27 HE21 GLN A   7       1.600  -0.019 -28.499  0.00  0.00    +0.145 HD
ATOM     28 HE22 GLN A   7       2.931  -0.814 -29.417  0.00  0.00    +0.145 HD
ATOM     29  OE1 GLN A   7       1.493  -1.186 -31.446  0.00  0.00    -0.275 OA
ENDBRANCH  24  25
ENDBRANCH  23  24
ENDBRANCH  11  23
ENDBRANCH   9  11
ENDBRANCH   6   7
BRANCH   6  30
ATOM     30  CB  ASP A   6      -0.897  -5.247 -34.071  0.00  0.00    +0.143 C 
BRANCH  30  31
ATOM     31  CG  ASP A   6      -0.359  -6.292 -35.025  0.00  0.00    +0.367 C 
ATOM     32  OD2 ASP A   6      -0.940  -7.397 -35.080  0.00  0.00    -0.246 OA
ATOM     33  OD1 ASP A   6       0.633  -6.007 -35.727  0.00  0.00    -0.246 OA
ENDBRANCH  30  31
ENDBRANCH   6  30
ENDBRANCH   3   6
ENDBRANCH   1   2
BRANCH   1  36
ATOM     34  C   GLY A   4       2.027  -8.756 -29.537  0.00  0.00    +0.243 C 
ATOM     35  O   GLY A   4       3.232  -8.997 -29.598  0.00  0.00    -0.273 OA
ATOM     36  N   GLN A   5       1.321  -8.340 -30.584  0.00  0.00    -0.297 N 
ATOM     37  H   GLN A   5       0.311  -8.123 -30.466  0.00  0.00    +0.150 HD
BRANCH  34  38
ATOM     38  CA  GLY A   4       1.270  -8.918 -28.235  0.00  0.00    +0.176 C 
BRANCH  38  40
ATOM     39  C   ASP A   3      -1.150  -8.860 -28.326  0.00  0.00    +0.241 C 
ATOM     40  N   GLY A   4       0.004  -8.210 -28.245  0.00  0.00    -0.295 N 
ATOM     41  H   GLY A   4       0.001  -7.172 -28.188  0.00  0.00    +0.150 HD
ATOM     42  O   ASP A   3      -1.224 -10.086 -28.385  0.00  0.00    -0.273 OA
BRANCH  39  43
ATOM     43  CA  ASP A   3      -2.409  -8.002 -28.339  0.00  0.00    +0.160 C 
BRANCH  43  46
ATOM     44  C   TYR A   2      -1.914  -5.888 -27.246  0.00  0.00    +0.241 C 
ATOM     45  O   TYR A   2      -1.915  -6.411 -26.132  0.00  0.00    -0.273 OA
ATOM     46  N   ASP A   3      -2.096  -6.577 -28.367  0.00  0.00    -0.297 N 
ATOM     47  H   ASP A   3      -2.014  -6.091 -29.283  0.00  0.00    +0.150 HD
BRANCH  44  48
ATOM     48  CA  TYR A   2      -1.714  -4.388 -27.397  0.00  0.00    +0.153 C 
BRANCH  48  50
ATOM     49  C   GLY A   1      -3.434  -2.677 -27.183  0.00  0.00    +0.240 C 
ATOM     50  N   TYR A   2      -2.767  -3.701 -26.668  0.00  0.00    -0.297 N 
ATOM     51  H   TYR A   2      -3.006  -4.024 -25.709  0.00  0.00    +0.150 HD
ATOM     52  O   GLY A   1      -3.262  -2.267 -28.334  0.00  0.00    -0.274 OA
BRANCH  49  53
ATOM     53  CA  GLY A   1      -4.447  -2.031 -26.262  0.00  0.00    +0.169 C 
BRANCH  53  54
ATOM     54  N   GLY A   1      -5.380  -1.197 -26.988  0.00  0.00    -0.236 NA
ATOM     55  H   GLY A   1      -5.034  -0.332 -27.450  0.00  0.00    +0.142 HD
ENDBRANCH  53  54
ENDBRANCH  49  53
ENDBRANCH  48  50
BRANCH  48  56
ATOM     56  CB  TYR A   2      -0.356  -3.967 -26.841  0.00  0.00    +0.055 C 
BRANCH  56  57
ATOM     57  CG  TYR A   2       0.833  -4.623 -27.497  0.00  0.00    -0.020 A 
ATOM     58  CD2 TYR A   2       1.544  -5.622 -26.846  0.00  0.00    -0.001 A 
ATOM     59  CE2 TYR A   2       2.640  -6.217 -27.437  0.00  0.00    +0.036 A 
ATOM     60  CZ  TYR A   2       3.042  -5.807 -28.691  0.00  0.00    +0.134 A 
ATOM     61  CE1 TYR A   2       2.357  -4.813 -29.354  0.00  0.00    +0.036 A 
ATOM     62  CD1 TYR A   2       1.262  -4.224 -28.754  0.00  0.00    -0.001 A 
BRANCH  60  63
ATOM     63  OH  TYR A   2       4.134  -6.395 -29.285  0.00  0.00    -0.506 OA
ATOM     64  HH  TYR A   2       3.969  -7.365 -29.390  0.00  0.00    +0.292 HD
ENDBRANCH  60  63
ENDBRANCH  56  57
ENDBRANCH  48  56
ENDBRANCH  44  48
ENDBRANCH  43  46
BRANCH  43  65
ATOM     65  CB  ASP A   3      -3.299  -8.382 -29.527  0.00  0.00    +0.143 C 
BRANCH  65  66
ATOM     66  CG  ASP A   3      -2.583  -8.259 -30.859  0.00  0.00    +0.367 C 
ATOM     67  OD2 ASP A   3      -1.470  -7.695 -30.892  0.00  0.00    -0.246 OA
ATOM     68  OD1 ASP A   3      -3.140  -8.723 -31.876  0.00  0.00    -0.246 OA
ENDBRANCH  65  66
ENDBRANCH  43  65
ENDBRANCH  39  43
ENDBRANCH  38  40
ENDBRANCH  34  38
ENDBRANCH   1  36
BRANCH   1  69
ATOM     69  CB  GLN A   5       1.524  -9.324 -32.823  0.00  0.00    +0.039 C 
BRANCH  69  70
ATOM     70  CG  GLN A   5       2.154  -9.254 -34.203  0.00  0.00    +0.087 C 
BRANCH  70  71
ATOM     71  CD  GLN A   5       1.961 -10.531 -34.998  0.00  0.00    +0.219 C 
ATOM     72  OE1 GLN A   5       1.739 -11.603 -34.432  0.00  0.00    -0.275 OA
ATOM     73  NE2 GLN A   5       2.040 -10.421 -36.320  0.00  0.00    -0.329 N 
ATOM     74 HE21 GLN A   5       2.229  -9.495 -36.754  0.00  0.00    +0.145 HD
ATOM     75 HE22 GLN A   5       1.913 -11.261 -36.920  0.00  0.00    +0.145 HD
ENDBRANCH  70  71
ENDBRANCH  69  70
ENDBRANCH   1  69
TORSDOF 31
REMARK  Name = ../refined-set-2016/4xmb/4xmb_pocket.pdb
REMARK  246 active torsions:
REMARK  status: ('A' for Active; 'I' for Inactive)
REMARK    1  A    between atoms: _1  and  _3
REMARK    2  A    between atoms: _3  and  _4
REMARK    3  A    between atoms: _6  and  _8
REMARK    4  A    between atoms: _8  and  _9
REMARK    5  A    between atoms: _8  and  _11
REMARK    6  A    between atoms: _11  and  _12
REMARK    7  A    between atoms: _17  and  _18
REMARK    8  A    between atoms: _20  and  _22
REMARK    9  A    between atoms: _22  and  _23
REMARK   10  A    between atoms: _22  and  _25
REMARK   11  A    between atoms: _25  and  _26
REMARK   12  A    between atoms: _32  and  _34
REMARK   13  A    between atoms: _34  and  _35
REMARK   14  A    between atoms: _34  and  _37
REMARK   15  A    between atoms: _37  and  _38
REMARK   16  A    between atoms: _38  and  _39
REMARK   17  A    between atoms: _39  and  _40
REMARK   18  A    between atoms: _49  and  _51
REMARK   19  A    between atoms: _51  and  _52
REMARK   20  A    between atoms: _51  and  _54
REMARK   21  A    between atoms: _54  and  _55
REMARK   22  A    between atoms: _55  and  _56
REMARK   23  A    between atoms: _61  and  _63
REMARK   24  A    between atoms: _63  and  _64
REMARK   25  A    between atoms: _63  and  _66
REMARK   26  A    between atoms: _66  and  _67
REMARK   27  A    between atoms: _69  and  _71
REMARK   28  A    between atoms: _71  and  _72
REMARK   29  A    between atoms: _71  and  _74
REMARK   30  A    between atoms: _74  and  _75
REMARK   31  A    between atoms: _78  and  _80
REMARK   32  A    between atoms: _80  and  _81
REMARK   33  A    between atoms: _80  and  _83
REMARK   34  A    between atoms: _83  and  _84
REMARK   35  A    between atoms: _84  and  _85
REMARK   36  A    between atoms: _85  and  _86
REMARK   37  A    between atoms: _95  and  _97
REMARK   38  A    between atoms: _97  and  _98
REMARK   39  A    between atoms: _97  and  _100
REMARK   40  A    between atoms: _100  and  _101
REMARK   41  A    between atoms: _103  and  _105
REMARK   42  A    between atoms: _105  and  _106
REMARK   43  A    between atoms: _108  and  _110
REMARK   44  A    between atoms: _110  and  _111
REMARK   45  A    between atoms: _110  and  _113
REMARK   46  A    between atoms: _113  and  _114
REMARK   47  A    between atoms: _117  and  _119
REMARK   48  A    between atoms: _119  and  _120
REMARK   49  A    between atoms: _122  and  _124
REMARK   50  A    between atoms: _124  and  _125
REMARK   51  A    between atoms: _127  and  _129
REMARK   52  A    between atoms: _129  and  _130
REMARK   53  A    between atoms: _129  and  _132
REMARK   54  A    between atoms: _132  and  _133
REMARK   55  A    between atoms: _133  and  _134
REMARK   56  A    between atoms: _134  and  _135
REMARK   57  A    between atoms: _144  and  _146
REMARK   58  A    between atoms: _146  and  _147
REMARK   59  A    between atoms: _146  and  _149
REMARK   60  A    between atoms: _149  and  _150
REMARK   61  A    between atoms: _155  and  _157
REMARK   62  A    between atoms: _157  and  _158
REMARK   63  A    between atoms: _157  and  _160
REMARK   64  A    between atoms: _160  and  _161
REMARK   65  A    between atoms: _164  and  _166
REMARK   66  A    between atoms: _166  and  _167
REMARK   67  A    between atoms: _166  and  _169
REMARK   68  A    between atoms: _169  and  _170
REMARK   69  A    between atoms: _173  and  _175
REMARK   70  A    between atoms: _175  and  _176
REMARK   71  A    between atoms: _175  and  _178
REMARK   72  A    between atoms: _178  and  _179
REMARK   73  A    between atoms: _181  and  _183
REMARK   74  A    between atoms: _183  and  _184
REMARK   75  A    between atoms: _183  and  _186
REMARK   76  A    between atoms: _186  and  _187
REMARK   77  A    between atoms: _187  and  _188
REMARK   78  A    between atoms: _188  and  _189
REMARK   79  A    between atoms: _198  and  _200
REMARK   80  A    between atoms: _200  and  _201
REMARK   81  A    between atoms: _200  and  _203
REMARK   82  A    between atoms: _203  and  _204
REMARK   83  A    between atoms: _209  and  _211
REMARK   84  A    between atoms: _211  and  _212
REMARK   85  A    between atoms: _211  and  _214
REMARK   86  A    between atoms: _214  and  _215
REMARK   87  A    between atoms: _215  and  _216
REMARK   88  A    between atoms: _216  and  _217
REMARK   89  A    between atoms: _226  and  _228
REMARK   90  A    between atoms: _228  and  _229
REMARK   91  A    between atoms: _228  and  _231
REMARK   92  A    between atoms: _231  and  _232
REMARK   93  A    between atoms: _235  and  _237
REMARK   94  A    between atoms: _237  and  _238
REMARK   95  A    between atoms: _240  and  _242
REMARK   96  A    between atoms: _242  and  _243
REMARK   97  A    between atoms: _242  and  _245
REMARK   98  A    between atoms: _245  and  _246
REMARK   99  A    between atoms: _248  and  _250
REMARK  100  A    between atoms: _250  and  _251
REMARK  101  A    between atoms: _250  and  _253
REMARK  102  A    between atoms: _253  and  _254
REMARK  103  A    between atoms: _259  and  _261
REMARK  104  A    between atoms: _261  and  _262
REMARK  105  A    between atoms: _261  and  _264
REMARK  106  A    between atoms: _264  and  _265
REMARK  107  A    between atoms: _265  and  _266
REMARK  108  A    between atoms: _266  and  _267
REMARK  109  A    between atoms: _276  and  _278
REMARK  110  A    between atoms: _278  and  _279
REMARK  111  A    between atoms: _278  and  _281
REMARK  112  A    between atoms: _281  and  _282
REMARK  113  A    between atoms: _285  and  _287
REMARK  114  A    between atoms: _287  and  _288
REMARK  115  A    between atoms: _290  and  _292
REMARK  116  A    between atoms: _292  and  _293
REMARK  117  A    between atoms: _292  and  _295
REMARK  118  A    between atoms: _298  and  _300
REMARK  119  A    between atoms: _300  and  _301
REMARK  120  A    between atoms: _303  and  _305
REMARK  121  A    between atoms: _305  and  _306
REMARK  122  A    between atoms: _308  and  _310
REMARK  123  A    between atoms: _310  and  _311
REMARK  124  A    between atoms: _310  and  _313
REMARK  125  A    between atoms: _313  and  _314
REMARK  126  A    between atoms: _320  and  _322
REMARK  127  A    between atoms: _322  and  _323
REMARK  128  A    between atoms: _322  and  _325
REMARK  129  A    between atoms: _325  and  _326
REMARK  130  A    between atoms: _329  and  _331
REMARK  131  A    between atoms: _331  and  _332
REMARK  132  A    between atoms: _334  and  _336
REMARK  133  A    between atoms: _336  and  _337
REMARK  134  A    between atoms: _336  and  _339
REMARK  135  A    between atoms: _339  and  _340
REMARK  136  A    between atoms: _345  and  _347
REMARK  137  A    between atoms: _347  and  _348
REMARK  138  A    between atoms: _347  and  _350
REMARK  139  A    between atoms: _350  and  _351
REMARK  140  A    between atoms: _351  and  _352
REMARK  141  A    between atoms: _352  and  _353
REMARK  142  A    between atoms: _362  and  _364
REMARK  143  A    between atoms: _364  and  _365
REMARK  144  A    between atoms: _364  and  _367
REMARK  145  A    between atoms: _367  and  _368
REMARK  146  A    between atoms: _371  and  _373
REMARK  147  A    between atoms: _373  and  _374
REMARK  148  A    between atoms: _373  and  _376
REMARK  149  A    between atoms: _376  and  _377
REMARK  150  A    between atoms: _377  and  _378
REMARK  151  A    between atoms: _378  and  _379
REMARK  152  A    between atoms: _388  and  _390
REMARK  153  A    between atoms: _390  and  _391
REMARK  154  A    between atoms: _390  and  _393
REMARK  155  A    between atoms: _393  and  _394
REMARK  156  A    between atoms: _396  and  _398
REMARK  157  A    between atoms: _398  and  _399
REMARK  158  A    between atoms: _401  and  _403
REMARK  159  A    between atoms: _403  and  _404
REMARK  160  A    between atoms: _407  and  _409
REMARK  161  A    between atoms: _409  and  _410
REMARK  162  A    between atoms: _412  and  _414
REMARK  163  A    between atoms: _414  and  _415
REMARK  164  A    between atoms: _414  and  _417
REMARK  165  A    between atoms: _417  and  _418
REMARK  166  A    between atoms: _423  and  _424
REMARK  167  A    between atoms: _426  and  _428
REMARK  168  A    between atoms: _428  and  _429
REMARK  169  A    between atoms: _428  and  _431
REMARK  170  A    between atoms: _431  and  _432
REMARK  171  A    between atoms: _435  and  _437
REMARK  172  A    between atoms: _437  and  _438
REMARK  173  A    between atoms: _440  and  _442
REMARK  174  A    between atoms: _442  and  _443
REMARK  175  A    between atoms: _442  and  _445
REMARK  176  A    between atoms: _445  and  _446
REMARK  177  A    between atoms: _446  and  _447
REMARK  178  A    between atoms: _452  and  _454
REMARK  179  A    between atoms: _454  and  _455
REMARK  180  A    between atoms: _454  and  _457
REMARK  181  A    between atoms: _457  and  _458
REMARK  182  A    between atoms: _461  and  _463
REMARK  183  A    between atoms: _463  and  _464
REMARK  184  A    between atoms: _463  and  _466
REMARK  185  A    between atoms: _466  and  _467
REMARK  186  A    between atoms: _467  and  _468
REMARK  187  A    between atoms: _473  and  _475
REMARK  188  A    between atoms: _475  and  _476
REMARK  189  A    between atoms: _475  and  _478
REMARK  190  A    between atoms: _478  and  _479
REMARK  191  A    between atoms: _482  and  _484
REMARK  192  A    between atoms: _484  and  _485
REMARK  193  A    between atoms: _484  and  _487
REMARK  194  A    between atoms: _487  and  _488
REMARK  195  A    between atoms: _488  and  _489
REMARK  196  A    between atoms: _489  and  _490
REMARK  197  A    between atoms: _499  and  _501
REMARK  198  A    between atoms: _501  and  _502
REMARK  199  A    between atoms: _501  and  _504
REMARK  200  A    between atoms: _504  and  _505
REMARK  201  A    between atoms: _507  and  _509
REMARK  202  A    between atoms: _509  and  _510
REMARK  203  A    between atoms: _513  and  _515
REMARK  204  A    between atoms: _515  and  _516
REMARK  205  A    between atoms: _515  and  _518
REMARK  206  A    between atoms: _518  and  _519
REMARK  207  A    between atoms: _522  and  _524
REMARK  208  A    between atoms: _524  and  _525
REMARK  209  A    between atoms: _527  and  _529
REMARK  210  A    between atoms: _529  and  _530
REMARK  211  A    between atoms: _529  and  _532
REMARK  212  A    between atoms: _532  and  _533
REMARK  213  A    between atoms: _538  and  _539
REMARK  214  A    between atoms: _541  and  _543
REMARK  215  A    between atoms: _543  and  _544
REMARK  216  A    between atoms: _543  and  _546
REMARK  217  A    between atoms: _546  and  _547
REMARK  218  A    between atoms: _550  and  _552
REMARK  219  A    between atoms: _552  and  _553
REMARK  220  A    between atoms: _555  and  _557
REMARK  221  A    between atoms: _557  and  _558
REMARK  222  A    between atoms: _557  and  _560
REMARK  223  A    between atoms: _560  and  _561
REMARK  224  A    between atoms: _566  and  _568
REMARK  225  A    between atoms: _568  and  _569
REMARK  226  A    between atoms: _568  and  _571
REMARK  227  A    between atoms: _571  and  _572
REMARK  228  A    between atoms: _575  and  _577
REMARK  229  A    between atoms: _577  and  _578
REMARK  230  A    between atoms: _577  and  _580
REMARK  231  A    between atoms: _580  and  _581
REMARK  232  A    between atoms: _587  and  _589
REMARK  233  A    between atoms: _589  and  _590
REMARK  234  A    between atoms: _589  and  _592
REMARK  235  A    between atoms: _592  and  _593
REMARK  236  A    between atoms: _593  and  _594
REMARK  237  A    between atoms: _594  and  _595
REMARK  238  A    between atoms: _604  and  _606
REMARK  239  A    between atoms: _606  and  _607
REMARK  240  A    between atoms: _606  and  _609
REMARK  241  A    between atoms: _609  and  _610
REMARK  242  A    between atoms: _612  and  _614
REMARK  243  A    between atoms: _614  and  _615
REMARK  244  A    between atoms: _617  and  _619
REMARK  245  A    between atoms: _619  and  _620
REMARK  246  A    between atoms: _619  and  _622
REMARK                            x       y       z     vdW  Elec       q    Type
REMARK                         _______ _______ _______ _____ _____    ______ ____
ROOT
ATOM      1  CA  SER A   2      -2.115   1.231 -26.650  0.00  0.00    +0.178 C 
ENDROOT
BRANCH   1   3
ATOM      2  C   ARG A   1      -3.450   1.864 -28.592  0.00  0.00    +0.238 C 
ATOM      3  N   SER A   2      -2.290   1.884 -27.942  0.00  0.00    -0.295 N 
ATOM      4  H   SER A   2      -1.482   2.381 -28.369  0.00  0.00    +0.150 HD
ATOM      5  O   ARG A   1      -4.418   1.203 -28.218  0.00  0.00    -0.274 OA
BRANCH   2   6
ATOM      6  CA  ARG A   1      -3.524   2.716 -29.857  0.00  0.00    +0.145 C 
BRANCH   6   7
ATOM      7  N   ARG A   1      -4.279   2.074 -30.925  0.00  0.00    -0.238 NA
ATOM      8  H   ARG A   1      -4.902   1.271 -30.705  0.00  0.00    +0.142 HD
ENDBRANCH   6   7
BRANCH   6   9
ATOM      9  CB  ARG A   1      -4.128   4.087 -29.537  0.00  0.00    +0.030 C 
BRANCH   9  10
ATOM     10  CG  ARG A   1      -5.564   4.030 -29.036  0.00  0.00    +0.045 C 
BRANCH  10  11
ATOM     11  CD  ARG A   1      -6.104   5.419 -28.727  0.00  0.00    +0.174 C 
BRANCH  11  12
ATOM     12  NE  ARG A   1      -6.598   6.109 -29.916  0.00  0.00    -0.265 N 
ATOM     13  CZ  ARG A   1      -6.434   7.408 -30.149  0.00  0.00    +0.342 C 
ATOM     14  NH2 ARG A   1      -5.778   8.163 -29.279  0.00  0.00    -0.292 N 
ATOM     15 HH21 ARG A   1      -5.390   7.740 -28.412  0.00  0.00    +0.255 HD
ATOM     16 HH22 ARG A   1      -5.651   9.179 -29.464  0.00  0.00    +0.255 HD
ATOM     17  NH1 ARG A   1      -6.922   7.953 -31.255  0.00  0.00    -0.292 N 
ATOM     18 HH11 ARG A   1      -6.792   8.969 -31.435  0.00  0.00    +0.255 HD
ATOM     19 HH12 ARG A   1      -7.434   7.364 -31.942  0.00  0.00    +0.255 HD
ATOM     20  HE  ARG A   1      -7.111   5.548 -30.626  0.00  0.00    +0.259 HD
ENDBRANCH  11  12
ENDBRANCH  10  11
ENDBRANCH   9  10
ENDBRANCH   6   9
ENDBRANCH   2   6
ENDBRANCH   1   3
BRANCH   1  21
ATOM     21  C   SER A   2      -1.533   2.232 -25.663  0.00  0.00    +0.243 C 
ATOM     22  N   ALA A   3      -1.763   1.999 -24.376  0.00  0.00    -0.297 N 
ATOM     23  H   ALA A   3      -2.266   1.132 -24.099  0.00  0.00    +0.150 HD
ATOM     24  O   SER A   2      -0.888   3.200 -26.064  0.00  0.00    -0.273 OA
BRANCH  22  25
ATOM     25  CA  ALA A   3      -1.326   2.931 -23.342  0.00  0.00    +0.149 C 
ATOM     26  CB  ALA A   3       0.168   3.191 -23.455  0.00  0.00    +0.031 C 
BRANCH  25  27
ATOM     27  C   ALA A   3      -2.108   4.236 -23.450  0.00  0.00    +0.241 C 
ATOM     28  O   ALA A   3      -1.574   5.319 -23.209  0.00  0.00    -0.273 OA
ATOM     29  N   LEU A   4      -3.380   4.120 -23.816  0.00  0.00    -0.298 N 
ATOM     30  H   LEU A   4      -3.775   3.172 -23.980  0.00  0.00    +0.150 HD
BRANCH  29  31
ATOM     31  CA  LEU A   4      -4.235   5.285 -23.993  0.00  0.00    +0.137 C 
BRANCH  31  32
ATOM     32  C   LEU A   4      -4.924   5.677 -22.693  0.00  0.00    +0.227 C 
ATOM     33  O   LEU A   4      -5.172   4.836 -21.832  0.00  0.00    -0.286 OA
ENDBRANCH  31  32
BRANCH  31  34
ATOM     34  CB  LEU A   4      -5.293   5.010 -25.062  0.00  0.00    +0.028 C 
BRANCH  34  35
ATOM     35  CG  LEU A   4      -6.258   3.858 -24.768  0.00  0.00    +0.002 C 
ATOM     36  CD2 LEU A   4      -5.626   2.512 -25.110  0.00  0.00    +0.000 C 
ATOM     37  CD1 LEU A   4      -7.566   4.044 -25.528  0.00  0.00    +0.000 C 
ENDBRANCH  34  35
ENDBRANCH  31  34
ENDBRANCH  29  31
ENDBRANCH  25  27
ENDBRANCH  22  25
ENDBRANCH   1  21
BRANCH   1  38
ATOM     38  CB  SER A   2      -1.198   0.010 -26.766  0.00  0.00    +0.166 C 
BRANCH  38  39
ATOM     39  OG  SER A   2       0.128   0.389 -27.094  0.00  0.00    -0.380 OA
ATOM     40  H   SER A   2       0.694  -0.420 -27.161  0.00  0.00    +0.211 HD
ENDBRANCH  38  39
ENDBRANCH   1  38
TORSDOF 16
REMARK  Name = ../refined-set-2016/4xmb/4xmb_pocket.pdb
REMARK  246 active torsions:
REMARK  status: ('A' for Active; 'I' for Inactive)
REMARK    1  A    between atoms: _1  and  _3
REMARK    2  A    between atoms: _3  and  _4
REMARK    3  A    between atoms: _6  and  _8
REMARK    4  A    between atoms: _8  and  _9
REMARK    5  A    between atoms: _8  and  _11
REMARK    6  A    between atoms: _11  and  _12
REMARK    7  A    between atoms: _17  and  _18
REMARK    8  A    between atoms: _20  and  _22
REMARK    9  A    between atoms: _22  and  _23
REMARK   10  A    between atoms: _22  and  _25
REMARK   11  A    between atoms: _25  and  _26
REMARK   12  A    between atoms: _32  and  _34
REMARK   13  A    between atoms: _34  and  _35
REMARK   14  A    between atoms: _34  and  _37
REMARK   15  A    between atoms: _37  and  _38
REMARK   16  A    between atoms: _38  and  _39
REMARK   17  A    between atoms: _39  and  _40
REMARK   18  A    between atoms: _49  and  _51
REMARK   19  A    between atoms: _51  and  _52
REMARK   20  A    between atoms: _51  and  _54
REMARK   21  A    between atoms: _54  and  _55
REMARK   22  A    between atoms: _55  and  _56
REMARK   23  A    between atoms: _61  and  _63
REMARK   24  A    between atoms: _63  and  _64
REMARK   25  A    between atoms: _63  and  _66
REMARK   26  A    between atoms: _66  and  _67
REMARK   27  A    between atoms: _69  and  _71
REMARK   28  A    between atoms: _71  and  _72
REMARK   29  A    between atoms: _71  and  _74
REMARK   30  A    between atoms: _74  and  _75
REMARK   31  A    between atoms: _78  and  _80
REMARK   32  A    between atoms: _80  and  _81
REMARK   33  A    between atoms: _80  and  _83
REMARK   34  A    between atoms: _83  and  _84
REMARK   35  A    between atoms: _84  and  _85
REMARK   36  A    between atoms: _85  and  _86
REMARK   37  A    between atoms: _95  and  _97
REMARK   38  A    between atoms: _97  and  _98
REMARK   39  A    between atoms: _97  and  _100
REMARK   40  A    between atoms: _100  and  _101
REMARK   41  A    between atoms: _103  and  _105
REMARK   42  A    between atoms: _105  and  _106
REMARK   43  A    between atoms: _108  and  _110
REMARK   44  A    between atoms: _110  and  _111
REMARK   45  A    between atoms: _110  and  _113
REMARK   46  A    between atoms: _113  and  _114
REMARK   47  A    between atoms: _117  and  _119
REMARK   48  A    between atoms: _119  and  _120
REMARK   49  A    between atoms: _122  and  _124
REMARK   50  A    between atoms: _124  and  _125
REMARK   51  A    between atoms: _127  and  _129
REMARK   52  A    between atoms: _129  and  _130
REMARK   53  A    between atoms: _129  and  _132
REMARK   54  A    between atoms: _132  and  _133
REMARK   55  A    between atoms: _133  and  _134
REMARK   56  A    between atoms: _134  and  _135
REMARK   57  A    between atoms: _144  and  _146
REMARK   58  A    between atoms: _146  and  _147
REMARK   59  A    between atoms: _146  and  _149
REMARK   60  A    between atoms: _149  and  _150
REMARK   61  A    between atoms: _155  and  _157
REMARK   62  A    between atoms: _157  and  _158
REMARK   63  A    between atoms: _157  and  _160
REMARK   64  A    between atoms: _160  and  _161
REMARK   65  A    between atoms: _164  and  _166
REMARK   66  A    between atoms: _166  and  _167
REMARK   67  A    between atoms: _166  and  _169
REMARK   68  A    between atoms: _169  and  _170
REMARK   69  A    between atoms: _173  and  _175
REMARK   70  A    between atoms: _175  and  _176
REMARK   71  A    between atoms: _175  and  _178
REMARK   72  A    between atoms: _178  and  _179
REMARK   73  A    between atoms: _181  and  _183
REMARK   74  A    between atoms: _183  and  _184
REMARK   75  A    between atoms: _183  and  _186
REMARK   76  A    between atoms: _186  and  _187
REMARK   77  A    between atoms: _187  and  _188
REMARK   78  A    between atoms: _188  and  _189
REMARK   79  A    between atoms: _198  and  _200
REMARK   80  A    between atoms: _200  and  _201
REMARK   81  A    between atoms: _200  and  _203
REMARK   82  A    between atoms: _203  and  _204
REMARK   83  A    between atoms: _209  and  _211
REMARK   84  A    between atoms: _211  and  _212
REMARK   85  A    between atoms: _211  and  _214
REMARK   86  A    between atoms: _214  and  _215
REMARK   87  A    between atoms: _215  and  _216
REMARK   88  A    between atoms: _216  and  _217
REMARK   89  A    between atoms: _226  and  _228
REMARK   90  A    between atoms: _228  and  _229
REMARK   91  A    between atoms: _228  and  _231
REMARK   92  A    between atoms: _231  and  _232
REMARK   93  A    between atoms: _235  and  _237
REMARK   94  A    between atoms: _237  and  _238
REMARK   95  A    between atoms: _240  and  _242
REMARK   96  A    between atoms: _242  and  _243
REMARK   97  A    between atoms: _242  and  _245
REMARK   98  A    between atoms: _245  and  _246
REMARK   99  A    between atoms: _248  and  _250
REMARK  100  A    between atoms: _250  and  _251
REMARK  101  A    between atoms: _250  and  _253
REMARK  102  A    between atoms: _253  and  _254
REMARK  103  A    between atoms: _259  and  _261
REMARK  104  A    between atoms: _261  and  _262
REMARK  105  A    between atoms: _261  and  _264
REMARK  106  A    between atoms: _264  and  _265
REMARK  107  A    between atoms: _265  and  _266
REMARK  108  A    between atoms: _266  and  _267
REMARK  109  A    between atoms: _276  and  _278
REMARK  110  A    between atoms: _278  and  _279
REMARK  111  A    between atoms: _278  and  _281
REMARK  112  A    between atoms: _281  and  _282
REMARK  113  A    between atoms: _285  and  _287
REMARK  114  A    between atoms: _287  and  _288
REMARK  115  A    between atoms: _290  and  _292
REMARK  116  A    between atoms: _292  and  _293
REMARK  117  A    between atoms: _292  and  _295
REMARK  118  A    between atoms: _298  and  _300
REMARK  119  A    between atoms: _300  and  _301
REMARK  120  A    between atoms: _303  and  _305
REMARK  121  A    between atoms: _305  and  _306
REMARK  122  A    between atoms: _308  and  _310
REMARK  123  A    between atoms: _310  and  _311
REMARK  124  A    between atoms: _310  and  _313
REMARK  125  A    between atoms: _313  and  _314
REMARK  126  A    between atoms: _320  and  _322
REMARK  127  A    between atoms: _322  and  _323
REMARK  128  A    between atoms: _322  and  _325
REMARK  129  A    between atoms: _325  and  _326
REMARK  130  A    between atoms: _329  and  _331
REMARK  131  A    between atoms: _331  and  _332
REMARK  132  A    between atoms: _334  and  _336
REMARK  133  A    between atoms: _336  and  _337
REMARK  134  A    between atoms: _336  and  _339
REMARK  135  A    between atoms: _339  and  _340
REMARK  136  A    between atoms: _345  and  _347
REMARK  137  A    between atoms: _347  and  _348
REMARK  138  A    between atoms: _347  and  _350
REMARK  139  A    between atoms: _350  and  _351
REMARK  140  A    between atoms: _351  and  _352
REMARK  141  A    between atoms: _352  and  _353
REMARK  142  A    between atoms: _362  and  _364
REMARK  143  A    between atoms: _364  and  _365
REMARK  144  A    between atoms: _364  and  _367
REMARK  145  A    between atoms: _367  and  _368
REMARK  146  A    between atoms: _371  and  _373
REMARK  147  A    between atoms: _373  and  _374
REMARK  148  A    between atoms: _373  and  _376
REMARK  149  A    between atoms: _376  and  _377
REMARK  150  A    between atoms: _377  and  _378
REMARK  151  A    between atoms: _378  and  _379
REMARK  152  A    between atoms: _388  and  _390
REMARK  153  A    between atoms: _390  and  _391
REMARK  154  A    between atoms: _390  and  _393
REMARK  155  A    between atoms: _393  and  _394
REMARK  156  A    between atoms: _396  and  _398
REMARK  157  A    between atoms: _398  and  _399
REMARK  158  A    between atoms: _401  and  _403
REMARK  159  A    between atoms: _403  and  _404
REMARK  160  A    between atoms: _407  and  _409
REMARK  161  A    between atoms: _409  and  _410
REMARK  162  A    between atoms: _412  and  _414
REMARK  163  A    between atoms: _414  and  _415
REMARK  164  A    between atoms: _414  and  _417
REMARK  165  A    between atoms: _417  and  _418
REMARK  166  A    between atoms: _423  and  _424
REMARK  167  A    between atoms: _426  and  _428
REMARK  168  A    between atoms: _428  and  _429
REMARK  169  A    between atoms: _428  and  _431
REMARK  170  A    between atoms: _431  and  _432
REMARK  171  A    between atoms: _435  and  _437
REMARK  172  A    between atoms: _437  and  _438
REMARK  173  A    between atoms: _440  and  _442
REMARK  174  A    between atoms: _442  and  _443
REMARK  175  A    between atoms: _442  and  _445
REMARK  176  A    between atoms: _445  and  _446
REMARK  177  A    between atoms: _446  and  _447
REMARK  178  A    between atoms: _452  and  _454
REMARK  179  A    between atoms: _454  and  _455
REMARK  180  A    between atoms: _454  and  _457
REMARK  181  A    between atoms: _457  and  _458
REMARK  182  A    between atoms: _461  and  _463
REMARK  183  A    between atoms: _463  and  _464
REMARK  184  A    between atoms: _463  and  _466
REMARK  185  A    between atoms: _466  and  _467
REMARK  186  A    between atoms: _467  and  _468
REMARK  187  A    between atoms: _473  and  _475
REMARK  188  A    between atoms: _475  and  _476
REMARK  189  A    between atoms: _475  and  _478
REMARK  190  A    between atoms: _478  and  _479
REMARK  191  A    between atoms: _482  and  _484
REMARK  192  A    between atoms: _484  and  _485
REMARK  193  A    between atoms: _484  and  _487
REMARK  194  A    between atoms: _487  and  _488
REMARK  195  A    between atoms: _488  and  _489
REMARK  196  A    between atoms: _489  and  _490
REMARK  197  A    between atoms: _499  and  _501
REMARK  198  A    between atoms: _501  and  _502
REMARK  199  A    between atoms: _501  and  _504
REMARK  200  A    between atoms: _504  and  _505
REMARK  201  A    between atoms: _507  and  _509
REMARK  202  A    between atoms: _509  and  _510
REMARK  203  A    between atoms: _513  and  _515
REMARK  204  A    between atoms: _515  and  _516
REMARK  205  A    between atoms: _515  and  _518
REMARK  206  A    between atoms: _518  and  _519
REMARK  207  A    between atoms: _522  and  _524
REMARK  208  A    between atoms: _524  and  _525
REMARK  209  A    between atoms: _527  and  _529
REMARK  210  A    between atoms: _529  and  _530
REMARK  211  A    between atoms: _529  and  _532
REMARK  212  A    between atoms: _532  and  _533
REMARK  213  A    between atoms: _538  and  _539
REMARK  214  A    between atoms: _541  and  _543
REMARK  215  A    between atoms: _543  and  _544
REMARK  216  A    between atoms: _543  and  _546
REMARK  217  A    between atoms: _546  and  _547
REMARK  218  A    between atoms: _550  and  _552
REMARK  219  A    between atoms: _552  and  _553
REMARK  220  A    between atoms: _555  and  _557
REMARK  221  A    between atoms: _557  and  _558
REMARK  222  A    between atoms: _557  and  _560
REMARK  223  A    between atoms: _560  and  _561
REMARK  224  A    between atoms: _566  and  _568
REMARK  225  A    between atoms: _568  and  _569
REMARK  226  A    between atoms: _568  and  _571
REMARK  227  A    between atoms: _571  and  _572
REMARK  228  A    between atoms: _575  and  _577
REMARK  229  A    between atoms: _577  and  _578
REMARK  230  A    between atoms: _577  and  _580
REMARK  231  A    between atoms: _580  and  _581
REMARK  232  A    between atoms: _587  and  _589
REMARK  233  A    between atoms: _589  and  _590
REMARK  234  A    between atoms: _589  and  _592
REMARK  235  A    between atoms: _592  and  _593
REMARK  236  A    between atoms: _593  and  _594
REMARK  237  A    between atoms: _594  and  _595
REMARK  238  A    between atoms: _604  and  _606
REMARK  239  A    between atoms: _606  and  _607
REMARK  240  A    between atoms: _606  and  _609
REMARK  241  A    between atoms: _609  and  _610
REMARK  242  A    between atoms: _612  and  _614
REMARK  243  A    between atoms: _614  and  _615
REMARK  244  A    between atoms: _617  and  _619
REMARK  245  A    between atoms: _619  and  _620
REMARK  246  A    between atoms: _619  and  _622
REMARK                            x       y       z     vdW  Elec       q    Type
REMARK                         _______ _______ _______ _____ _____    ______ ____
ROOT
ATOM      1  C   GLY A   4       4.607   2.273 -33.659  0.00  0.00    +0.243 C 
ATOM      2  O   GLY A   4       5.741   1.798 -33.597  0.00  0.00    -0.273 OA
ATOM      3  N   HIS A   5       4.348   3.471 -34.175  0.00  0.00    -0.297 N 
ATOM      4  H   HIS A   5       3.363   3.800 -34.218  0.00  0.00    +0.150 HD
ENDROOT
BRANCH   1   5
ATOM      5  CA  GLY A   4       3.417   1.496 -33.137  0.00  0.00    +0.176 C 
BRANCH   5   7
ATOM      6  C   ASP A   3       1.155   2.360 -33.107  0.00  0.00    +0.241 C 
ATOM      7  N   GLY A   4       2.387   2.371 -32.613  0.00  0.00    -0.295 N 
ATOM      8  H   GLY A   4       2.618   3.021 -31.834  0.00  0.00    +0.150 HD
ATOM      9  O   ASP A   3       0.808   1.613 -34.021  0.00  0.00    -0.273 OA
BRANCH   6  10
ATOM     10  CA  ASP A   3       0.164   3.333 -32.476  0.00  0.00    +0.160 C 
BRANCH  10  13
ATOM     11  C   TYR A   2       0.560   3.752 -30.110  0.00  0.00    +0.241 C 
ATOM     12  O   TYR A   2      -0.057   2.739 -29.787  0.00  0.00    -0.273 OA
ATOM     13  N   ASP A   3       0.752   4.103 -31.379  0.00  0.00    -0.297 N 
ATOM     14  H   ASP A   3       1.330   4.940 -31.595  0.00  0.00    +0.150 HD
BRANCH  11  15
ATOM     15  CA  TYR A   2       1.128   4.679 -29.042  0.00  0.00    +0.153 C 
BRANCH  15  17
ATOM     16  C   GLY A   1      -0.311   6.247 -27.853  0.00  0.00    +0.240 C 
ATOM     17  N   TYR A   2       0.071   4.999 -28.096  0.00  0.00    -0.297 N 
ATOM     18  H   TYR A   2      -0.403   4.222 -27.592  0.00  0.00    +0.150 HD
ATOM     19  O   GLY A   1       0.178   7.223 -28.426  0.00  0.00    -0.274 OA
BRANCH  16  20
ATOM     20  CA  GLY A   1      -1.404   6.410 -26.816  0.00  0.00    +0.169 C 
BRANCH  20  21
ATOM     21  N   GLY A   1      -1.766   7.800 -26.622  0.00  0.00    -0.236 NA
ATOM     22  H   GLY A   1      -1.046   8.467 -26.279  0.00  0.00    +0.142 HD
ENDBRANCH  20  21
ENDBRANCH  16  20
ENDBRANCH  15  17
BRANCH  15  23
ATOM     23  CB  TYR A   2       2.289   4.011 -28.303  0.00  0.00    +0.055 C 
BRANCH  23  24
ATOM     24  CG  TYR A   2       3.525   3.777 -29.138  0.00  0.00    -0.020 A 
ATOM     25  CD2 TYR A   2       3.953   2.488 -29.433  0.00  0.00    -0.001 A 
ATOM     26  CE2 TYR A   2       5.092   2.269 -30.191  0.00  0.00    +0.036 A 
ATOM     27  CZ  TYR A   2       5.817   3.346 -30.656  0.00  0.00    +0.134 A 
ATOM     28  CE1 TYR A   2       5.415   4.634 -30.372  0.00  0.00    +0.036 A 
ATOM     29  CD1 TYR A   2       4.278   4.844 -29.612  0.00  0.00    -0.001 A 
BRANCH  27  30
ATOM     30  OH  TYR A   2       6.947   3.135 -31.409  0.00  0.00    -0.506 OA
ATOM     31  HH  TYR A   2       6.707   2.633 -32.228  0.00  0.00    +0.292 HD
ENDBRANCH  27  30
ENDBRANCH  23  24
ENDBRANCH  15  23
ENDBRANCH  11  15
ENDBRANCH  10  13
BRANCH  10  32
ATOM     32  CB  ASP A   3      -0.415   4.263 -33.547  0.00  0.00    +0.143 C 
BRANCH  32  33
ATOM     33  CG  ASP A   3       0.660   4.928 -34.392  0.00  0.00    +0.367 C 
ATOM     34  OD2 ASP A   3       1.837   4.937 -33.973  0.00  0.00    -0.246 OA
ATOM     35  OD1 ASP A   3       0.323   5.449 -35.477  0.00  0.00    -0.246 OA
ENDBRANCH  32  33
ENDBRANCH  10  32
ENDBRANCH   6  10
ENDBRANCH   5   7
ENDBRANCH   1   5
BRANCH   3  36
ATOM     36  CA  HIS A   5       5.408   4.336 -34.682  0.00  0.00    +0.155 C 
BRANCH  36  37
ATOM     37  C   HIS A   5       5.360   5.697 -34.002  0.00  0.00    +0.241 C 
ATOM     38  N   THR A   6       4.158   6.118 -33.623  0.00  0.00    -0.295 N 
ATOM     39  H   THR A   6       3.357   5.454 -33.640  0.00  0.00    +0.150 HD
ATOM     40  O   HIS A   5       6.388   6.351 -33.823  0.00  0.00    -0.273 OA
BRANCH  38  41
ATOM     41  CA  THR A   6       3.938   7.489 -33.184  0.00  0.00    +0.176 C 
BRANCH  41  42
ATOM     42  C   THR A   6       3.209   7.586 -31.847  0.00  0.00    +0.243 C 
ATOM     43  N   PHE A   7       3.633   8.535 -31.020  0.00  0.00    -0.298 N 
ATOM     44  H   PHE A   7       4.504   9.057 -31.245  0.00  0.00    +0.150 HD
ATOM     45  O   THR A   6       2.286   6.820 -31.570  0.00  0.00    -0.273 OA
BRANCH  43  46
ATOM     46  CA  PHE A   7       2.902   8.858 -29.806  0.00  0.00    +0.141 C 
BRANCH  46  47
ATOM     47  C   PHE A   7       1.775   9.816 -30.162  0.00  0.00    +0.227 C 
ATOM     48  O   PHE A   7       2.013  10.954 -30.555  0.00  0.00    -0.286 OA
ENDBRANCH  46  47
BRANCH  46  49
ATOM     49  CB  PHE A   7       3.838   9.453 -28.757  0.00  0.00    +0.054 C 
BRANCH  49  50
ATOM     50  CG  PHE A   7       4.860   8.477 -28.248  0.00  0.00    -0.020 A 
ATOM     51  CD2 PHE A   7       4.577   7.660 -27.166  0.00  0.00    -0.004 A 
ATOM     52  CE2 PHE A   7       5.512   6.753 -26.699  0.00  0.00    -0.000 A 
ATOM     53  CZ  PHE A   7       6.740   6.652 -27.318  0.00  0.00    -0.000 A 
ATOM     54  CE1 PHE A   7       7.030   7.454 -28.401  0.00  0.00    -0.000 A 
ATOM     55  CD1 PHE A   7       6.092   8.359 -28.863  0.00  0.00    -0.004 A 
ENDBRANCH  49  50
ENDBRANCH  46  49
ENDBRANCH  43  46
ENDBRANCH  41  42
BRANCH  41  56
ATOM     56  CB  THR A   6       3.127   8.275 -34.236  0.00  0.00    +0.137 C 
ATOM     57  CG2 THR A   6       2.999   9.737 -33.835  0.00  0.00    +0.034 C 
BRANCH  56  58
ATOM     58  OG1 THR A   6       3.775   8.185 -35.512  0.00  0.00    -0.382 OA
ATOM     59  HG1 THR A   6       3.251   8.690 -36.183  0.00  0.00    +0.210 HD
ENDBRANCH  56  58
ENDBRANCH  41  56
ENDBRANCH  38  41
ENDBRANCH  36  37
BRANCH  36  60
ATOM     60  CB  HIS A   5       5.276   4.535 -36.195  0.00  0.00    +0.076 C 
BRANCH  60  61
ATOM     61  CG  HIS A   5       4.891   3.298 -36.943  0.00  0.00    +0.082 A 
ATOM     62  ND1 HIS A   5       5.807   2.341 -37.325  0.00  0.00    -0.227 NA
ATOM     63  CE1 HIS A   5       5.185   1.371 -37.970  0.00  0.00    +0.199 A 
ATOM     64  NE2 HIS A   5       3.898   1.665 -38.024  0.00  0.00    -0.221 NA
ATOM     65  CD2 HIS A   5       3.688   2.866 -37.392  0.00  0.00    +0.115 A 
ENDBRANCH  60  61
ENDBRANCH  36  60
ENDBRANCH   3  36
TORSDOF 25
REMARK  Name = ../refined-set-2016/4xmb/4xmb_pocket.pdb
REMARK  246 active torsions:
REMARK  status: ('A' for Active; 'I' for Inactive)
REMARK    1  A    between atoms: _1  and  _3
REMARK    2  A    between atoms: _3  and  _4
REMARK    3  A    between atoms: _6  and  _8
REMARK    4  A    between atoms: _8  and  _9
REMARK    5  A    between atoms: _8  and  _11
REMARK    6  A    between atoms: _11  and  _12
REMARK    7  A    between atoms: _17  and  _18
REMARK    8  A    between atoms: _20  and  _22
REMARK    9  A    between atoms: _22  and  _23
REMARK   10  A    between atoms: _22  and  _25
REMARK   11  A    between atoms: _25  and  _26
REMARK   12  A    between atoms: _32  and  _34
REMARK   13  A    between atoms: _34  and  _35
REMARK   14  A    between atoms: _34  and  _37
REMARK   15  A    between atoms: _37  and  _38
REMARK   16  A    between atoms: _38  and  _39
REMARK   17  A    between atoms: _39  and  _40
REMARK   18  A    between atoms: _49  and  _51
REMARK   19  A    between atoms: _51  and  _52
REMARK   20  A    between atoms: _51  and  _54
REMARK   21  A    between atoms: _54  and  _55
REMARK   22  A    between atoms: _55  and  _56
REMARK   23  A    between atoms: _61  and  _63
REMARK   24  A    between atoms: _63  and  _64
REMARK   25  A    between atoms: _63  and  _66
REMARK   26  A    between atoms: _66  and  _67
REMARK   27  A    between atoms: _69  and  _71
REMARK   28  A    between atoms: _71  and  _72
REMARK   29  A    between atoms: _71  and  _74
REMARK   30  A    between atoms: _74  and  _75
REMARK   31  A    between atoms: _78  and  _80
REMARK   32  A    between atoms: _80  and  _81
REMARK   33  A    between atoms: _80  and  _83
REMARK   34  A    between atoms: _83  and  _84
REMARK   35  A    between atoms: _84  and  _85
REMARK   36  A    between atoms: _85  and  _86
REMARK   37  A    between atoms: _95  and  _97
REMARK   38  A    between atoms: _97  and  _98
REMARK   39  A    between atoms: _97  and  _100
REMARK   40  A    between atoms: _100  and  _101
REMARK   41  A    between atoms: _103  and  _105
REMARK   42  A    between atoms: _105  and  _106
REMARK   43  A    between atoms: _108  and  _110
REMARK   44  A    between atoms: _110  and  _111
REMARK   45  A    between atoms: _110  and  _113
REMARK   46  A    between atoms: _113  and  _114
REMARK   47  A    between atoms: _117  and  _119
REMARK   48  A    between atoms: _119  and  _120
REMARK   49  A    between atoms: _122  and  _124
REMARK   50  A    between atoms: _124  and  _125
REMARK   51  A    between atoms: _127  and  _129
REMARK   52  A    between atoms: _129  and  _130
REMARK   53  A    between atoms: _129  and  _132
REMARK   54  A    between atoms: _132  and  _133
REMARK   55  A    between atoms: _133  and  _134
REMARK   56  A    between atoms: _134  and  _135
REMARK   57  A    between atoms: _144  and  _146
REMARK   58  A    between atoms: _146  and  _147
REMARK   59  A    between atoms: _146  and  _149
REMARK   60  A    between atoms: _149  and  _150
REMARK   61  A    between atoms: _155  and  _157
REMARK   62  A    between atoms: _157  and  _158
REMARK   63  A    between atoms: _157  and  _160
REMARK   64  A    between atoms: _160  and  _161
REMARK   65  A    between atoms: _164  and  _166
REMARK   66  A    between atoms: _166  and  _167
REMARK   67  A    between atoms: _166  and  _169
REMARK   68  A    between atoms: _169  and  _170
REMARK   69  A    between atoms: _173  and  _175
REMARK   70  A    between atoms: _175  and  _176
REMARK   71  A    between atoms: _175  and  _178
REMARK   72  A    between atoms: _178  and  _179
REMARK   73  A    between atoms: _181  and  _183
REMARK   74  A    between atoms: _183  and  _184
REMARK   75  A    between atoms: _183  and  _186
REMARK   76  A    between atoms: _186  and  _187
REMARK   77  A    between atoms: _187  and  _188
REMARK   78  A    between atoms: _188  and  _189
REMARK   79  A    between atoms: _198  and  _200
REMARK   80  A    between atoms: _200  and  _201
REMARK   81  A    between atoms: _200  and  _203
REMARK   82  A    between atoms: _203  and  _204
REMARK   83  A    between atoms: _209  and  _211
REMARK   84  A    between atoms: _211  and  _212
REMARK   85  A    between atoms: _211  and  _214
REMARK   86  A    between atoms: _214  and  _215
REMARK   87  A    between atoms: _215  and  _216
REMARK   88  A    between atoms: _216  and  _217
REMARK   89  A    between atoms: _226  and  _228
REMARK   90  A    between atoms: _228  and  _229
REMARK   91  A    between atoms: _228  and  _231
REMARK   92  A    between atoms: _231  and  _232
REMARK   93  A    between atoms: _235  and  _237
REMARK   94  A    between atoms: _237  and  _238
REMARK   95  A    between atoms: _240  and  _242
REMARK   96  A    between atoms: _242  and  _243
REMARK   97  A    between atoms: _242  and  _245
REMARK   98  A    between atoms: _245  and  _246
REMARK   99  A    between atoms: _248  and  _250
REMARK  100  A    between atoms: _250  and  _251
REMARK  101  A    between atoms: _250  and  _253
REMARK  102  A    between atoms: _253  and  _254
REMARK  103  A    between atoms: _259  and  _261
REMARK  104  A    between atoms: _261  and  _262
REMARK  105  A    between atoms: _261  and  _264
REMARK  106  A    between atoms: _264  and  _265
REMARK  107  A    between atoms: _265  and  _266
REMARK  108  A    between atoms: _266  and  _267
REMARK  109  A    between atoms: _276  and  _278
REMARK  110  A    between atoms: _278  and  _279
REMARK  111  A    between atoms: _278  and  _281
REMARK  112  A    between atoms: _281  and  _282
REMARK  113  A    between atoms: _285  and  _287
REMARK  114  A    between atoms: _287  and  _288
REMARK  115  A    between atoms: _290  and  _292
REMARK  116  A    between atoms: _292  and  _293
REMARK  117  A    between atoms: _292  and  _295
REMARK  118  A    between atoms: _298  and  _300
REMARK  119  A    between atoms: _300  and  _301
REMARK  120  A    between atoms: _303  and  _305
REMARK  121  A    between atoms: _305  and  _306
REMARK  122  A    between atoms: _308  and  _310
REMARK  123  A    between atoms: _310  and  _311
REMARK  124  A    between atoms: _310  and  _313
REMARK  125  A    between atoms: _313  and  _314
REMARK  126  A    between atoms: _320  and  _322
REMARK  127  A    between atoms: _322  and  _323
REMARK  128  A    between atoms: _322  and  _325
REMARK  129  A    between atoms: _325  and  _326
REMARK  130  A    between atoms: _329  and  _331
REMARK  131  A    between atoms: _331  and  _332
REMARK  132  A    between atoms: _334  and  _336
REMARK  133  A    between atoms: _336  and  _337
REMARK  134  A    between atoms: _336  and  _339
REMARK  135  A    between atoms: _339  and  _340
REMARK  136  A    between atoms: _345  and  _347
REMARK  137  A    between atoms: _347  and  _348
REMARK  138  A    between atoms: _347  and  _350
REMARK  139  A    between atoms: _350  and  _351
REMARK  140  A    between atoms: _351  and  _352
REMARK  141  A    between atoms: _352  and  _353
REMARK  142  A    between atoms: _362  and  _364
REMARK  143  A    between atoms: _364  and  _365
REMARK  144  A    between atoms: _364  and  _367
REMARK  145  A    between atoms: _367  and  _368
REMARK  146  A    between atoms: _371  and  _373
REMARK  147  A    between atoms: _373  and  _374
REMARK  148  A    between atoms: _373  and  _376
REMARK  149  A    between atoms: _376  and  _377
REMARK  150  A    between atoms: _377  and  _378
REMARK  151  A    between atoms: _378  and  _379
REMARK  152  A    between atoms: _388  and  _390
REMARK  153  A    between atoms: _390  and  _391
REMARK  154  A    between atoms: _390  and  _393
REMARK  155  A    between atoms: _393  and  _394
REMARK  156  A    between atoms: _396  and  _398
REMARK  157  A    between atoms: _398  and  _399
REMARK  158  A    between atoms: _401  and  _403
REMARK  159  A    between atoms: _403  and  _404
REMARK  160  A    between atoms: _407  and  _409
REMARK  161  A    between atoms: _409  and  _410
REMARK  162  A    between atoms: _412  and  _414
REMARK  163  A    between atoms: _414  and  _415
REMARK  164  A    between atoms: _414  and  _417
REMARK  165  A    between atoms: _417  and  _418
REMARK  166  A    between atoms: _423  and  _424
REMARK  167  A    between atoms: _426  and  _428
REMARK  168  A    between atoms: _428  and  _429
REMARK  169  A    between atoms: _428  and  _431
REMARK  170  A    between atoms: _431  and  _432
REMARK  171  A    between atoms: _435  and  _437
REMARK  172  A    between atoms: _437  and  _438
REMARK  173  A    between atoms: _440  and  _442
REMARK  174  A    between atoms: _442  and  _443
REMARK  175  A    between atoms: _442  and  _445
REMARK  176  A    between atoms: _445  and  _446
REMARK  177  A    between atoms: _446  and  _447
REMARK  178  A    between atoms: _452  and  _454
REMARK  179  A    between atoms: _454  and  _455
REMARK  180  A    between atoms: _454  and  _457
REMARK  181  A    between atoms: _457  and  _458
REMARK  182  A    between atoms: _461  and  _463
REMARK  183  A    between atoms: _463  and  _464
REMARK  184  A    between atoms: _463  and  _466
REMARK  185  A    between atoms: _466  and  _467
REMARK  186  A    between atoms: _467  and  _468
REMARK  187  A    between atoms: _473  and  _475
REMARK  188  A    between atoms: _475  and  _476
REMARK  189  A    between atoms: _475  and  _478
REMARK  190  A    between atoms: _478  and  _479
REMARK  191  A    between atoms: _482  and  _484
REMARK  192  A    between atoms: _484  and  _485
REMARK  193  A    between atoms: _484  and  _487
REMARK  194  A    between atoms: _487  and  _488
REMARK  195  A    between atoms: _488  and  _489
REMARK  196  A    between atoms: _489  and  _490
REMARK  197  A    between atoms: _499  and  _501
REMARK  198  A    between atoms: _501  and  _502
REMARK  199  A    between atoms: _501  and  _504
REMARK  200  A    between atoms: _504  and  _505
REMARK  201  A    between atoms: _507  and  _509
REMARK  202  A    between atoms: _509  and  _510
REMARK  203  A    between atoms: _513  and  _515
REMARK  204  A    between atoms: _515  and  _516
REMARK  205  A    between atoms: _515  and  _518
REMARK  206  A    between atoms: _518  and  _519
REMARK  207  A    between atoms: _522  and  _524
REMARK  208  A    between atoms: _524  and  _525
REMARK  209  A    between atoms: _527  and  _529
REMARK  210  A    between atoms: _529  and  _530
REMARK  211  A    between atoms: _529  and  _532
REMARK  212  A    between atoms: _532  and  _533
REMARK  213  A    between atoms: _538  and  _539
REMARK  214  A    between atoms: _541  and  _543
REMARK  215  A    between atoms: _543  and  _544
REMARK  216  A    between atoms: _543  and  _546
REMARK  217  A    between atoms: _546  and  _547
REMARK  218  A    between atoms: _550  and  _552
REMARK  219  A    between atoms: _552  and  _553
REMARK  220  A    between atoms: _555  and  _557
REMARK  221  A    between atoms: _557  and  _558
REMARK  222  A    between atoms: _557  and  _560
REMARK  223  A    between atoms: _560  and  _561
REMARK  224  A    between atoms: _566  and  _568
REMARK  225  A    between atoms: _568  and  _569
REMARK  226  A    between atoms: _568  and  _571
REMARK  227  A    between atoms: _571  and  _572
REMARK  228  A    between atoms: _575  and  _577
REMARK  229  A    between atoms: _577  and  _578
REMARK  230  A    between atoms: _577  and  _580
REMARK  231  A    between atoms: _580  and  _581
REMARK  232  A    between atoms: _587  and  _589
REMARK  233  A    between atoms: _589  and  _590
REMARK  234  A    between atoms: _589  and  _592
REMARK  235  A    between atoms: _592  and  _593
REMARK  236  A    between atoms: _593  and  _594
REMARK  237  A    between atoms: _594  and  _595
REMARK  238  A    between atoms: _604  and  _606
REMARK  239  A    between atoms: _606  and  _607
REMARK  240  A    between atoms: _606  and  _609
REMARK  241  A    between atoms: _609  and  _610
REMARK  242  A    between atoms: _612  and  _614
REMARK  243  A    between atoms: _614  and  _615
REMARK  244  A    between atoms: _617  and  _619
REMARK  245  A    between atoms: _619  and  _620
REMARK  246  A    between atoms: _619  and  _622
REMARK                            x       y       z     vdW  Elec       q    Type
REMARK                         _______ _______ _______ _____ _____    ______ ____
ROOT
ATOM      1  C   ARG A   1       1.142  10.058 -25.198  0.00  0.00    +0.238 C 
ATOM      2  N   SER A   2       1.801   9.140 -24.497  0.00  0.00    -0.295 N 
ATOM      3  H   SER A   2       2.782   9.328 -24.209  0.00  0.00    +0.150 HD
ATOM      4  O   ARG A   1      -0.013   9.901 -25.594  0.00  0.00    -0.274 OA
ENDROOT
BRANCH   1   5
ATOM      5  CA  ARG A   1       1.898  11.347 -25.498  0.00  0.00    +0.145 C 
BRANCH   5   6
ATOM      6  N   ARG A   1       1.414  11.958 -26.730  0.00  0.00    -0.238 NA
ATOM      7  H   ARG A   1       0.557  11.580 -27.182  0.00  0.00    +0.142 HD
ENDBRANCH   5   6
BRANCH   5   8
ATOM      8  CB  ARG A   1       1.741  12.319 -24.328  0.00  0.00    +0.030 C 
BRANCH   8   9
ATOM      9  CG  ARG A   1       0.299  12.533 -23.897  0.00  0.00    +0.045 C 
BRANCH   9  10
ATOM     10  CD  ARG A   1       0.159  13.706 -22.934  0.00  0.00    +0.174 C 
BRANCH  10  11
ATOM     11  NE  ARG A   1       0.292  14.991 -23.614  0.00  0.00    -0.265 N 
ATOM     12  CZ  ARG A   1      -0.066  16.157 -23.087  0.00  0.00    +0.342 C 
ATOM     13  NH2 ARG A   1      -0.588  16.207 -21.869  0.00  0.00    -0.292 N 
ATOM     14 HH21 ARG A   1      -0.718  15.332 -21.323  0.00  0.00    +0.255 HD
ATOM     15 HH22 ARG A   1      -0.867  17.122 -21.460  0.00  0.00    +0.255 HD
ATOM     16  NH1 ARG A   1       0.091  17.276 -23.780  0.00  0.00    -0.292 N 
ATOM     17 HH11 ARG A   1      -0.190  18.188 -23.366  0.00  0.00    +0.255 HD
ATOM     18 HH12 ARG A   1       0.495  17.242 -24.738  0.00  0.00    +0.255 HD
ATOM     19  HE  ARG A   1       0.693  14.994 -24.574  0.00  0.00    +0.259 HD
ENDBRANCH  10  11
ENDBRANCH   9  10
ENDBRANCH   8   9
ENDBRANCH   5   8
ENDBRANCH   1   5
BRANCH   2  20
ATOM     20  CA  SER A   2       1.178   7.876 -24.124  0.00  0.00    +0.178 C 
BRANCH  20  21
ATOM     21  C   SER A   2       1.223   7.667 -22.614  0.00  0.00    +0.243 C 
ATOM     22  O   SER A   2       1.851   8.439 -21.888  0.00  0.00    -0.273 OA
ATOM     23  N   GLY A   3       0.541   6.628 -22.145  0.00  0.00    -0.295 N 
ATOM     24  H   GLY A   3      -0.014   6.049 -22.807  0.00  0.00    +0.150 HD
BRANCH  23  25
ATOM     25  CA  GLY A   3       0.547   6.276 -20.736  0.00  0.00    +0.176 C 
BRANCH  25  26
ATOM     26  C   GLY A   3       0.105   7.366 -19.774  0.00  0.00    +0.243 C 
ATOM     27  O   GLY A   3       0.672   7.504 -18.691  0.00  0.00    -0.273 OA
ATOM     28  N   VAL A   4      -0.913   8.133 -20.159  0.00  0.00    -0.298 N 
ATOM     29  H   VAL A   4      -1.336   7.983 -21.097  0.00  0.00    +0.150 HD
BRANCH  28  30
ATOM     30  CA  VAL A   4      -1.449   9.180 -19.293  0.00  0.00    +0.137 C 
BRANCH  30  31
ATOM     31  CB  VAL A   4      -2.157  10.294 -20.096  0.00  0.00    +0.026 C 
ATOM     32  CG2 VAL A   4      -3.411   9.752 -20.772  0.00  0.00    +0.002 C 
ATOM     33  CG1 VAL A   4      -1.208  10.914 -21.115  0.00  0.00    +0.002 C 
ENDBRANCH  30  31
BRANCH  30  34
ATOM     34  C   VAL A   4      -2.458   8.619 -18.300  0.00  0.00    +0.227 C 
ATOM     35  O   VAL A   4      -2.933   7.494 -18.449  0.00  0.00    -0.286 OA
ENDBRANCH  30  34
ENDBRANCH  28  30
ENDBRANCH  25  26
ENDBRANCH  23  25
ENDBRANCH  20  21
BRANCH  20  36
ATOM     36  CB  SER A   2       1.854   6.703 -24.841  0.00  0.00    +0.166 C 
BRANCH  36  37
ATOM     37  OG  SER A   2       3.195   6.543 -24.413  0.00  0.00    -0.380 OA
ATOM     38  H   SER A   2       3.211   6.369 -23.439  0.00  0.00    +0.211 HD
ENDBRANCH  36  37
ENDBRANCH  20  36
ENDBRANCH   2  20
TORSDOF 15
REMARK  Name = ../refined-set-2016/4xmb/4xmb_pocket.pdb
REMARK  246 active torsions:
REMARK  status: ('A' for Active; 'I' for Inactive)
REMARK    1  A    between atoms: _1  and  _3
REMARK    2  A    between atoms: _3  and  _4
REMARK    3  A    between atoms: _6  and  _8
REMARK    4  A    between atoms: _8  and  _9
REMARK    5  A    between atoms: _8  and  _11
REMARK    6  A    between atoms: _11  and  _12
REMARK    7  A    between atoms: _17  and  _18
REMARK    8  A    between atoms: _20  and  _22
REMARK    9  A    between atoms: _22  and  _23
REMARK   10  A    between atoms: _22  and  _25
REMARK   11  A    between atoms: _25  and  _26
REMARK   12  A    between atoms: _32  and  _34
REMARK   13  A    between atoms: _34  and  _35
REMARK   14  A    between atoms: _34  and  _37
REMARK   15  A    between atoms: _37  and  _38
REMARK   16  A    between atoms: _38  and  _39
REMARK   17  A    between atoms: _39  and  _40
REMARK   18  A    between atoms: _49  and  _51
REMARK   19  A    between atoms: _51  and  _52
REMARK   20  A    between atoms: _51  and  _54
REMARK   21  A    between atoms: _54  and  _55
REMARK   22  A    between atoms: _55  and  _56
REMARK   23  A    between atoms: _61  and  _63
REMARK   24  A    between atoms: _63  and  _64
REMARK   25  A    between atoms: _63  and  _66
REMARK   26  A    between atoms: _66  and  _67
REMARK   27  A    between atoms: _69  and  _71
REMARK   28  A    between atoms: _71  and  _72
REMARK   29  A    between atoms: _71  and  _74
REMARK   30  A    between atoms: _74  and  _75
REMARK   31  A    between atoms: _78  and  _80
REMARK   32  A    between atoms: _80  and  _81
REMARK   33  A    between atoms: _80  and  _83
REMARK   34  A    between atoms: _83  and  _84
REMARK   35  A    between atoms: _84  and  _85
REMARK   36  A    between atoms: _85  and  _86
REMARK   37  A    between atoms: _95  and  _97
REMARK   38  A    between atoms: _97  and  _98
REMARK   39  A    between atoms: _97  and  _100
REMARK   40  A    between atoms: _100  and  _101
REMARK   41  A    between atoms: _103  and  _105
REMARK   42  A    between atoms: _105  and  _106
REMARK   43  A    between atoms: _108  and  _110
REMARK   44  A    between atoms: _110  and  _111
REMARK   45  A    between atoms: _110  and  _113
REMARK   46  A    between atoms: _113  and  _114
REMARK   47  A    between atoms: _117  and  _119
REMARK   48  A    between atoms: _119  and  _120
REMARK   49  A    between atoms: _122  and  _124
REMARK   50  A    between atoms: _124  and  _125
REMARK   51  A    between atoms: _127  and  _129
REMARK   52  A    between atoms: _129  and  _130
REMARK   53  A    between atoms: _129  and  _132
REMARK   54  A    between atoms: _132  and  _133
REMARK   55  A    between atoms: _133  and  _134
REMARK   56  A    between atoms: _134  and  _135
REMARK   57  A    between atoms: _144  and  _146
REMARK   58  A    between atoms: _146  and  _147
REMARK   59  A    between atoms: _146  and  _149
REMARK   60  A    between atoms: _149  and  _150
REMARK   61  A    between atoms: _155  and  _157
REMARK   62  A    between atoms: _157  and  _158
REMARK   63  A    between atoms: _157  and  _160
REMARK   64  A    between atoms: _160  and  _161
REMARK   65  A    between atoms: _164  and  _166
REMARK   66  A    between atoms: _166  and  _167
REMARK   67  A    between atoms: _166  and  _169
REMARK   68  A    between atoms: _169  and  _170
REMARK   69  A    between atoms: _173  and  _175
REMARK   70  A    between atoms: _175  and  _176
REMARK   71  A    between atoms: _175  and  _178
REMARK   72  A    between atoms: _178  and  _179
REMARK   73  A    between atoms: _181  and  _183
REMARK   74  A    between atoms: _183  and  _184
REMARK   75  A    between atoms: _183  and  _186
REMARK   76  A    between atoms: _186  and  _187
REMARK   77  A    between atoms: _187  and  _188
REMARK   78  A    between atoms: _188  and  _189
REMARK   79  A    between atoms: _198  and  _200
REMARK   80  A    between atoms: _200  and  _201
REMARK   81  A    between atoms: _200  and  _203
REMARK   82  A    between atoms: _203  and  _204
REMARK   83  A    between atoms: _209  and  _211
REMARK   84  A    between atoms: _211  and  _212
REMARK   85  A    between atoms: _211  and  _214
REMARK   86  A    between atoms: _214  and  _215
REMARK   87  A    between atoms: _215  and  _216
REMARK   88  A    between atoms: _216  and  _217
REMARK   89  A    between atoms: _226  and  _228
REMARK   90  A    between atoms: _228  and  _229
REMARK   91  A    between atoms: _228  and  _231
REMARK   92  A    between atoms: _231  and  _232
REMARK   93  A    between atoms: _235  and  _237
REMARK   94  A    between atoms: _237  and  _238
REMARK   95  A    between atoms: _240  and  _242
REMARK   96  A    between atoms: _242  and  _243
REMARK   97  A    between atoms: _242  and  _245
REMARK   98  A    between atoms: _245  and  _246
REMARK   99  A    between atoms: _248  and  _250
REMARK  100  A    between atoms: _250  and  _251
REMARK  101  A    between atoms: _250  and  _253
REMARK  102  A    between atoms: _253  and  _254
REMARK  103  A    between atoms: _259  and  _261
REMARK  104  A    between atoms: _261  and  _262
REMARK  105  A    between atoms: _261  and  _264
REMARK  106  A    between atoms: _264  and  _265
REMARK  107  A    between atoms: _265  and  _266
REMARK  108  A    between atoms: _266  and  _267
REMARK  109  A    between atoms: _276  and  _278
REMARK  110  A    between atoms: _278  and  _279
REMARK  111  A    between atoms: _278  and  _281
REMARK  112  A    between atoms: _281  and  _282
REMARK  113  A    between atoms: _285  and  _287
REMARK  114  A    between atoms: _287  and  _288
REMARK  115  A    between atoms: _290  and  _292
REMARK  116  A    between atoms: _292  and  _293
REMARK  117  A    between atoms: _292  and  _295
REMARK  118  A    between atoms: _298  and  _300
REMARK  119  A    between atoms: _300  and  _301
REMARK  120  A    between atoms: _303  and  _305
REMARK  121  A    between atoms: _305  and  _306
REMARK  122  A    between atoms: _308  and  _310
REMARK  123  A    between atoms: _310  and  _311
REMARK  124  A    between atoms: _310  and  _313
REMARK  125  A    between atoms: _313  and  _314
REMARK  126  A    between atoms: _320  and  _322
REMARK  127  A    between atoms: _322  and  _323
REMARK  128  A    between atoms: _322  and  _325
REMARK  129  A    between atoms: _325  and  _326
REMARK  130  A    between atoms: _329  and  _331
REMARK  131  A    between atoms: _331  and  _332
REMARK  132  A    between atoms: _334  and  _336
REMARK  133  A    between atoms: _336  and  _337
REMARK  134  A    between atoms: _336  and  _339
REMARK  135  A    between atoms: _339  and  _340
REMARK  136  A    between atoms: _345  and  _347
REMARK  137  A    between atoms: _347  and  _348
REMARK  138  A    between atoms: _347  and  _350
REMARK  139  A    between atoms: _350  and  _351
REMARK  140  A    between atoms: _351  and  _352
REMARK  141  A    between atoms: _352  and  _353
REMARK  142  A    between atoms: _362  and  _364
REMARK  143  A    between atoms: _364  and  _365
REMARK  144  A    between atoms: _364  and  _367
REMARK  145  A    between atoms: _367  and  _368
REMARK  146  A    between atoms: _371  and  _373
REMARK  147  A    between atoms: _373  and  _374
REMARK  148  A    between atoms: _373  and  _376
REMARK  149  A    between atoms: _376  and  _377
REMARK  150  A    between atoms: _377  and  _378
REMARK  151  A    between atoms: _378  and  _379
REMARK  152  A    between atoms: _388  and  _390
REMARK  153  A    between atoms: _390  and  _391
REMARK  154  A    between atoms: _390  and  _393
REMARK  155  A    between atoms: _393  and  _394
REMARK  156  A    between atoms: _396  and  _398
REMARK  157  A    between atoms: _398  and  _399
REMARK  158  A    between atoms: _401  and  _403
REMARK  159  A    between atoms: _403  and  _404
REMARK  160  A    between atoms: _407  and  _409
REMARK  161  A    between atoms: _409  and  _410
REMARK  162  A    between atoms: _412  and  _414
REMARK  163  A    between atoms: _414  and  _415
REMARK  164  A    between atoms: _414  and  _417
REMARK  165  A    between atoms: _417  and  _418
REMARK  166  A    between atoms: _423  and  _424
REMARK  167  A    between atoms: _426  and  _428
REMARK  168  A    between atoms: _428  and  _429
REMARK  169  A    between atoms: _428  and  _431
REMARK  170  A    between atoms: _431  and  _432
REMARK  171  A    between atoms: _435  and  _437
REMARK  172  A    between atoms: _437  and  _438
REMARK  173  A    between atoms: _440  and  _442
REMARK  174  A    between atoms: _442  and  _443
REMARK  175  A    between atoms: _442  and  _445
REMARK  176  A    between atoms: _445  and  _446
REMARK  177  A    between atoms: _446  and  _447
REMARK  178  A    between atoms: _452  and  _454
REMARK  179  A    between atoms: _454  and  _455
REMARK  180  A    between atoms: _454  and  _457
REMARK  181  A    between atoms: _457  and  _458
REMARK  182  A    between atoms: _461  and  _463
REMARK  183  A    between atoms: _463  and  _464
REMARK  184  A    between atoms: _463  and  _466
REMARK  185  A    between atoms: _466  and  _467
REMARK  186  A    between atoms: _467  and  _468
REMARK  187  A    between atoms: _473  and  _475
REMARK  188  A    between atoms: _475  and  _476
REMARK  189  A    between atoms: _475  and  _478
REMARK  190  A    between atoms: _478  and  _479
REMARK  191  A    between atoms: _482  and  _484
REMARK  192  A    between atoms: _484  and  _485
REMARK  193  A    between atoms: _484  and  _487
REMARK  194  A    between atoms: _487  and  _488
REMARK  195  A    between atoms: _488  and  _489
REMARK  196  A    between atoms: _489  and  _490
REMARK  197  A    between atoms: _499  and  _501
REMARK  198  A    between atoms: _501  and  _502
REMARK  199  A    between atoms: _501  and  _504
REMARK  200  A    between atoms: _504  and  _505
REMARK  201  A    between atoms: _507  and  _509
REMARK  202  A    between atoms: _509  and  _510
REMARK  203  A    between atoms: _513  and  _515
REMARK  204  A    between atoms: _515  and  _516
REMARK  205  A    between atoms: _515  and  _518
REMARK  206  A    between atoms: _518  and  _519
REMARK  207  A    between atoms: _522  and  _524
REMARK  208  A    between atoms: _524  and  _525
REMARK  209  A    between atoms: _527  and  _529
REMARK  210  A    between atoms: _529  and  _530
REMARK  211  A    between atoms: _529  and  _532
REMARK  212  A    between atoms: _532  and  _533
REMARK  213  A    between atoms: _538  and  _539
REMARK  214  A    between atoms: _541  and  _543
REMARK  215  A    between atoms: _543  and  _544
REMARK  216  A    between atoms: _543  and  _546
REMARK  217  A    between atoms: _546  and  _547
REMARK  218  A    between atoms: _550  and  _552
REMARK  219  A    between atoms: _552  and  _553
REMARK  220  A    between atoms: _555  and  _557
REMARK  221  A    between atoms: _557  and  _558
REMARK  222  A    between atoms: _557  and  _560
REMARK  223  A    between atoms: _560  and  _561
REMARK  224  A    between atoms: _566  and  _568
REMARK  225  A    between atoms: _568  and  _569
REMARK  226  A    between atoms: _568  and  _571
REMARK  227  A    between atoms: _571  and  _572
REMARK  228  A    between atoms: _575  and  _577
REMARK  229  A    between atoms: _577  and  _578
REMARK  230  A    between atoms: _577  and  _580
REMARK  231  A    between atoms: _580  and  _581
REMARK  232  A    between atoms: _587  and  _589
REMARK  233  A    between atoms: _589  and  _590
REMARK  234  A    between atoms: _589  and  _592
REMARK  235  A    between atoms: _592  and  _593
REMARK  236  A    between atoms: _593  and  _594
REMARK  237  A    between atoms: _594  and  _595
REMARK  238  A    between atoms: _604  and  _606
REMARK  239  A    between atoms: _606  and  _607
REMARK  240  A    between atoms: _606  and  _609
REMARK  241  A    between atoms: _609  and  _610
REMARK  242  A    between atoms: _612  and  _614
REMARK  243  A    between atoms: _614  and  _615
REMARK  244  A    between atoms: _617  and  _619
REMARK  245  A    between atoms: _619  and  _620
REMARK  246  A    between atoms: _619  and  _622
REMARK                            x       y       z     vdW  Elec       q    Type
REMARK                         _______ _______ _______ _____ _____    ______ ____
ROOT
ATOM      1  O   HOH     1       9.792   7.415 -18.369  0.00  0.00    +0.000 OA
ENDROOT
TORSDOF 0
REMARK  Name = ../refined-set-2016/4xmb/4xmb_pocket.pdb
REMARK  246 active torsions:
REMARK  status: ('A' for Active; 'I' for Inactive)
REMARK    1  A    between atoms: _1  and  _3
REMARK    2  A    between atoms: _3  and  _4
REMARK    3  A    between atoms: _6  and  _8
REMARK    4  A    between atoms: _8  and  _9
REMARK    5  A    between atoms: _8  and  _11
REMARK    6  A    between atoms: _11  and  _12
REMARK    7  A    between atoms: _17  and  _18
REMARK    8  A    between atoms: _20  and  _22
REMARK    9  A    between atoms: _22  and  _23
REMARK   10  A    between atoms: _22  and  _25
REMARK   11  A    between atoms: _25  and  _26
REMARK   12  A    between atoms: _32  and  _34
REMARK   13  A    between atoms: _34  and  _35
REMARK   14  A    between atoms: _34  and  _37
REMARK   15  A    between atoms: _37  and  _38
REMARK   16  A    between atoms: _38  and  _39
REMARK   17  A    between atoms: _39  and  _40
REMARK   18  A    between atoms: _49  and  _51
REMARK   19  A    between atoms: _51  and  _52
REMARK   20  A    between atoms: _51  and  _54
REMARK   21  A    between atoms: _54  and  _55
REMARK   22  A    between atoms: _55  and  _56
REMARK   23  A    between atoms: _61  and  _63
REMARK   24  A    between atoms: _63  and  _64
REMARK   25  A    between atoms: _63  and  _66
REMARK   26  A    between atoms: _66  and  _67
REMARK   27  A    between atoms: _69  and  _71
REMARK   28  A    between atoms: _71  and  _72
REMARK   29  A    between atoms: _71  and  _74
REMARK   30  A    between atoms: _74  and  _75
REMARK   31  A    between atoms: _78  and  _80
REMARK   32  A    between atoms: _80  and  _81
REMARK   33  A    between atoms: _80  and  _83
REMARK   34  A    between atoms: _83  and  _84
REMARK   35  A    between atoms: _84  and  _85
REMARK   36  A    between atoms: _85  and  _86
REMARK   37  A    between atoms: _95  and  _97
REMARK   38  A    between atoms: _97  and  _98
REMARK   39  A    between atoms: _97  and  _100
REMARK   40  A    between atoms: _100  and  _101
REMARK   41  A    between atoms: _103  and  _105
REMARK   42  A    between atoms: _105  and  _106
REMARK   43  A    between atoms: _108  and  _110
REMARK   44  A    between atoms: _110  and  _111
REMARK   45  A    between atoms: _110  and  _113
REMARK   46  A    between atoms: _113  and  _114
REMARK   47  A    between atoms: _117  and  _119
REMARK   48  A    between atoms: _119  and  _120
REMARK   49  A    between atoms: _122  and  _124
REMARK   50  A    between atoms: _124  and  _125
REMARK   51  A    between atoms: _127  and  _129
REMARK   52  A    between atoms: _129  and  _130
REMARK   53  A    between atoms: _129  and  _132
REMARK   54  A    between atoms: _132  and  _133
REMARK   55  A    between atoms: _133  and  _134
REMARK   56  A    between atoms: _134  and  _135
REMARK   57  A    between atoms: _144  and  _146
REMARK   58  A    between atoms: _146  and  _147
REMARK   59  A    between atoms: _146  and  _149
REMARK   60  A    between atoms: _149  and  _150
REMARK   61  A    between atoms: _155  and  _157
REMARK   62  A    between atoms: _157  and  _158
REMARK   63  A    between atoms: _157  and  _160
REMARK   64  A    between atoms: _160  and  _161
REMARK   65  A    between atoms: _164  and  _166
REMARK   66  A    between atoms: _166  and  _167
REMARK   67  A    between atoms: _166  and  _169
REMARK   68  A    between atoms: _169  and  _170
REMARK   69  A    between atoms: _173  and  _175
REMARK   70  A    between atoms: _175  and  _176
REMARK   71  A    between atoms: _175  and  _178
REMARK   72  A    between atoms: _178  and  _179
REMARK   73  A    between atoms: _181  and  _183
REMARK   74  A    between atoms: _183  and  _184
REMARK   75  A    between atoms: _183  and  _186
REMARK   76  A    between atoms: _186  and  _187
REMARK   77  A    between atoms: _187  and  _188
REMARK   78  A    between atoms: _188  and  _189
REMARK   79  A    between atoms: _198  and  _200
REMARK   80  A    between atoms: _200  and  _201
REMARK   81  A    between atoms: _200  and  _203
REMARK   82  A    between atoms: _203  and  _204
REMARK   83  A    between atoms: _209  and  _211
REMARK   84  A    between atoms: _211  and  _212
REMARK   85  A    between atoms: _211  and  _214
REMARK   86  A    between atoms: _214  and  _215
REMARK   87  A    between atoms: _215  and  _216
REMARK   88  A    between atoms: _216  and  _217
REMARK   89  A    between atoms: _226  and  _228
REMARK   90  A    between atoms: _228  and  _229
REMARK   91  A    between atoms: _228  and  _231
REMARK   92  A    between atoms: _231  and  _232
REMARK   93  A    between atoms: _235  and  _237
REMARK   94  A    between atoms: _237  and  _238
REMARK   95  A    between atoms: _240  and  _242
REMARK   96  A    between atoms: _242  and  _243
REMARK   97  A    between atoms: _242  and  _245
REMARK   98  A    between atoms: _245  and  _246
REMARK   99  A    between atoms: _248  and  _250
REMARK  100  A    between atoms: _250  and  _251
REMARK  101  A    between atoms: _250  and  _253
REMARK  102  A    between atoms: _253  and  _254
REMARK  103  A    between atoms: _259  and  _261
REMARK  104  A    between atoms: _261  and  _262
REMARK  105  A    between atoms: _261  and  _264
REMARK  106  A    between atoms: _264  and  _265
REMARK  107  A    between atoms: _265  and  _266
REMARK  108  A    between atoms: _266  and  _267
REMARK  109  A    between atoms: _276  and  _278
REMARK  110  A    between atoms: _278  and  _279
REMARK  111  A    between atoms: _278  and  _281
REMARK  112  A    between atoms: _281  and  _282
REMARK  113  A    between atoms: _285  and  _287
REMARK  114  A    between atoms: _287  and  _288
REMARK  115  A    between atoms: _290  and  _292
REMARK  116  A    between atoms: _292  and  _293
REMARK  117  A    between atoms: _292  and  _295
REMARK  118  A    between atoms: _298  and  _300
REMARK  119  A    between atoms: _300  and  _301
REMARK  120  A    between atoms: _303  and  _305
REMARK  121  A    between atoms: _305  and  _306
REMARK  122  A    between atoms: _308  and  _310
REMARK  123  A    between atoms: _310  and  _311
REMARK  124  A    between atoms: _310  and  _313
REMARK  125  A    between atoms: _313  and  _314
REMARK  126  A    between atoms: _320  and  _322
REMARK  127  A    between atoms: _322  and  _323
REMARK  128  A    between atoms: _322  and  _325
REMARK  129  A    between atoms: _325  and  _326
REMARK  130  A    between atoms: _329  and  _331
REMARK  131  A    between atoms: _331  and  _332
REMARK  132  A    between atoms: _334  and  _336
REMARK  133  A    between atoms: _336  and  _337
REMARK  134  A    between atoms: _336  and  _339
REMARK  135  A    between atoms: _339  and  _340
REMARK  136  A    between atoms: _345  and  _347
REMARK  137  A    between atoms: _347  and  _348
REMARK  138  A    between atoms: _347  and  _350
REMARK  139  A    between atoms: _350  and  _351
REMARK  140  A    between atoms: _351  and  _352
REMARK  141  A    between atoms: _352  and  _353
REMARK  142  A    between atoms: _362  and  _364
REMARK  143  A    between atoms: _364  and  _365
REMARK  144  A    between atoms: _364  and  _367
REMARK  145  A    between atoms: _367  and  _368
REMARK  146  A    between atoms: _371  and  _373
REMARK  147  A    between atoms: _373  and  _374
REMARK  148  A    between atoms: _373  and  _376
REMARK  149  A    between atoms: _376  and  _377
REMARK  150  A    between atoms: _377  and  _378
REMARK  151  A    between atoms: _378  and  _379
REMARK  152  A    between atoms: _388  and  _390
REMARK  153  A    between atoms: _390  and  _391
REMARK  154  A    between atoms: _390  and  _393
REMARK  155  A    between atoms: _393  and  _394
REMARK  156  A    between atoms: _396  and  _398
REMARK  157  A    between atoms: _398  and  _399
REMARK  158  A    between atoms: _401  and  _403
REMARK  159  A    between atoms: _403  and  _404
REMARK  160  A    between atoms: _407  and  _409
REMARK  161  A    between atoms: _409  and  _410
REMARK  162  A    between atoms: _412  and  _414
REMARK  163  A    between atoms: _414  and  _415
REMARK  164  A    between atoms: _414  and  _417
REMARK  165  A    between atoms: _417  and  _418
REMARK  166  A    between atoms: _423  and  _424
REMARK  167  A    between atoms: _426  and  _428
REMARK  168  A    between atoms: _428  and  _429
REMARK  169  A    between atoms: _428  and  _431
REMARK  170  A    between atoms: _431  and  _432
REMARK  171  A    between atoms: _435  and  _437
REMARK  172  A    between atoms: _437  and  _438
REMARK  173  A    between atoms: _440  and  _442
REMARK  174  A    between atoms: _442  and  _443
REMARK  175  A    between atoms: _442  and  _445
REMARK  176  A    between atoms: _445  and  _446
REMARK  177  A    between atoms: _446  and  _447
REMARK  178  A    between atoms: _452  and  _454
REMARK  179  A    between atoms: _454  and  _455
REMARK  180  A    between atoms: _454  and  _457
REMARK  181  A    between atoms: _457  and  _458
REMARK  182  A    between atoms: _461  and  _463
REMARK  183  A    between atoms: _463  and  _464
REMARK  184  A    between atoms: _463  and  _466
REMARK  185  A    between atoms: _466  and  _467
REMARK  186  A    between atoms: _467  and  _468
REMARK  187  A    between atoms: _473  and  _475
REMARK  188  A    between atoms: _475  and  _476
REMARK  189  A    between atoms: _475  and  _478
REMARK  190  A    between atoms: _478  and  _479
REMARK  191  A    between atoms: _482  and  _484
REMARK  192  A    between atoms: _484  and  _485
REMARK  193  A    between atoms: _484  and  _487
REMARK  194  A    between atoms: _487  and  _488
REMARK  195  A    between atoms: _488  and  _489
REMARK  196  A    between atoms: _489  and  _490
REMARK  197  A    between atoms: _499  and  _501
REMARK  198  A    between atoms: _501  and  _502
REMARK  199  A    between atoms: _501  and  _504
REMARK  200  A    between atoms: _504  and  _505
REMARK  201  A    between atoms: _507  and  _509
REMARK  202  A    between atoms: _509  and  _510
REMARK  203  A    between atoms: _513  and  _515
REMARK  204  A    between atoms: _515  and  _516
REMARK  205  A    between atoms: _515  and  _518
REMARK  206  A    between atoms: _518  and  _519
REMARK  207  A    between atoms: _522  and  _524
REMARK  208  A    between atoms: _524  and  _525
REMARK  209  A    between atoms: _527  and  _529
REMARK  210  A    between atoms: _529  and  _530
REMARK  211  A    between atoms: _529  and  _532
REMARK  212  A    between atoms: _532  and  _533
REMARK  213  A    between atoms: _538  and  _539
REMARK  214  A    between atoms: _541  and  _543
REMARK  215  A    between atoms: _543  and  _544
REMARK  216  A    between atoms: _543  and  _546
REMARK  217  A    between atoms: _546  and  _547
REMARK  218  A    between atoms: _550  and  _552
REMARK  219  A    between atoms: _552  and  _553
REMARK  220  A    between atoms: _555  and  _557
REMARK  221  A    between atoms: _557  and  _558
REMARK  222  A    between atoms: _557  and  _560
REMARK  223  A    between atoms: _560  and  _561
REMARK  224  A    between atoms: _566  and  _568
REMARK  225  A    between atoms: _568  and  _569
REMARK  226  A    between atoms: _568  and  _571
REMARK  227  A    between atoms: _571  and  _572
REMARK  228  A    between atoms: _575  and  _577
REMARK  229  A    between atoms: _577  and  _578
REMARK  230  A    between atoms: _577  and  _580
REMARK  231  A    between atoms: _580  and  _581
REMARK  232  A    between atoms: _587  and  _589
REMARK  233  A    between atoms: _589  and  _590
REMARK  234  A    between atoms: _589  and  _592
REMARK  235  A    between atoms: _592  and  _593
REMARK  236  A    between atoms: _593  and  _594
REMARK  237  A    between atoms: _594  and  _595
REMARK  238  A    between atoms: _604  and  _606
REMARK  239  A    between atoms: _606  and  _607
REMARK  240  A    between atoms: _606  and  _609
REMARK  241  A    between atoms: _609  and  _610
REMARK  242  A    between atoms: _612  and  _614
REMARK  243  A    between atoms: _614  and  _615
REMARK  244  A    between atoms: _617  and  _619
REMARK  245  A    between atoms: _619  and  _620
REMARK  246  A    between atoms: _619  and  _622
REMARK                            x       y       z     vdW  Elec       q    Type
REMARK                         _______ _______ _______ _____ _____    ______ ____
ROOT
ATOM      1  O   HOH     1      10.172   1.352 -14.292  0.00  0.00    +0.000 OA
ENDROOT
TORSDOF 0
REMARK  Name = ../refined-set-2016/4xmb/4xmb_pocket.pdb
REMARK  246 active torsions:
REMARK  status: ('A' for Active; 'I' for Inactive)
REMARK    1  A    between atoms: _1  and  _3
REMARK    2  A    between atoms: _3  and  _4
REMARK    3  A    between atoms: _6  and  _8
REMARK    4  A    between atoms: _8  and  _9
REMARK    5  A    between atoms: _8  and  _11
REMARK    6  A    between atoms: _11  and  _12
REMARK    7  A    between atoms: _17  and  _18
REMARK    8  A    between atoms: _20  and  _22
REMARK    9  A    between atoms: _22  and  _23
REMARK   10  A    between atoms: _22  and  _25
REMARK   11  A    between atoms: _25  and  _26
REMARK   12  A    between atoms: _32  and  _34
REMARK   13  A    between atoms: _34  and  _35
REMARK   14  A    between atoms: _34  and  _37
REMARK   15  A    between atoms: _37  and  _38
REMARK   16  A    between atoms: _38  and  _39
REMARK   17  A    between atoms: _39  and  _40
REMARK   18  A    between atoms: _49  and  _51
REMARK   19  A    between atoms: _51  and  _52
REMARK   20  A    between atoms: _51  and  _54
REMARK   21  A    between atoms: _54  and  _55
REMARK   22  A    between atoms: _55  and  _56
REMARK   23  A    between atoms: _61  and  _63
REMARK   24  A    between atoms: _63  and  _64
REMARK   25  A    between atoms: _63  and  _66
REMARK   26  A    between atoms: _66  and  _67
REMARK   27  A    between atoms: _69  and  _71
REMARK   28  A    between atoms: _71  and  _72
REMARK   29  A    between atoms: _71  and  _74
REMARK   30  A    between atoms: _74  and  _75
REMARK   31  A    between atoms: _78  and  _80
REMARK   32  A    between atoms: _80  and  _81
REMARK   33  A    between atoms: _80  and  _83
REMARK   34  A    between atoms: _83  and  _84
REMARK   35  A    between atoms: _84  and  _85
REMARK   36  A    between atoms: _85  and  _86
REMARK   37  A    between atoms: _95  and  _97
REMARK   38  A    between atoms: _97  and  _98
REMARK   39  A    between atoms: _97  and  _100
REMARK   40  A    between atoms: _100  and  _101
REMARK   41  A    between atoms: _103  and  _105
REMARK   42  A    between atoms: _105  and  _106
REMARK   43  A    between atoms: _108  and  _110
REMARK   44  A    between atoms: _110  and  _111
REMARK   45  A    between atoms: _110  and  _113
REMARK   46  A    between atoms: _113  and  _114
REMARK   47  A    between atoms: _117  and  _119
REMARK   48  A    between atoms: _119  and  _120
REMARK   49  A    between atoms: _122  and  _124
REMARK   50  A    between atoms: _124  and  _125
REMARK   51  A    between atoms: _127  and  _129
REMARK   52  A    between atoms: _129  and  _130
REMARK   53  A    between atoms: _129  and  _132
REMARK   54  A    between atoms: _132  and  _133
REMARK   55  A    between atoms: _133  and  _134
REMARK   56  A    between atoms: _134  and  _135
REMARK   57  A    between atoms: _144  and  _146
REMARK   58  A    between atoms: _146  and  _147
REMARK   59  A    between atoms: _146  and  _149
REMARK   60  A    between atoms: _149  and  _150
REMARK   61  A    between atoms: _155  and  _157
REMARK   62  A    between atoms: _157  and  _158
REMARK   63  A    between atoms: _157  and  _160
REMARK   64  A    between atoms: _160  and  _161
REMARK   65  A    between atoms: _164  and  _166
REMARK   66  A    between atoms: _166  and  _167
REMARK   67  A    between atoms: _166  and  _169
REMARK   68  A    between atoms: _169  and  _170
REMARK   69  A    between atoms: _173  and  _175
REMARK   70  A    between atoms: _175  and  _176
REMARK   71  A    between atoms: _175  and  _178
REMARK   72  A    between atoms: _178  and  _179
REMARK   73  A    between atoms: _181  and  _183
REMARK   74  A    between atoms: _183  and  _184
REMARK   75  A    between atoms: _183  and  _186
REMARK   76  A    between atoms: _186  and  _187
REMARK   77  A    between atoms: _187  and  _188
REMARK   78  A    between atoms: _188  and  _189
REMARK   79  A    between atoms: _198  and  _200
REMARK   80  A    between atoms: _200  and  _201
REMARK   81  A    between atoms: _200  and  _203
REMARK   82  A    between atoms: _203  and  _204
REMARK   83  A    between atoms: _209  and  _211
REMARK   84  A    between atoms: _211  and  _212
REMARK   85  A    between atoms: _211  and  _214
REMARK   86  A    between atoms: _214  and  _215
REMARK   87  A    between atoms: _215  and  _216
REMARK   88  A    between atoms: _216  and  _217
REMARK   89  A    between atoms: _226  and  _228
REMARK   90  A    between atoms: _228  and  _229
REMARK   91  A    between atoms: _228  and  _231
REMARK   92  A    between atoms: _231  and  _232
REMARK   93  A    between atoms: _235  and  _237
REMARK   94  A    between atoms: _237  and  _238
REMARK   95  A    between atoms: _240  and  _242
REMARK   96  A    between atoms: _242  and  _243
REMARK   97  A    between atoms: _242  and  _245
REMARK   98  A    between atoms: _245  and  _246
REMARK   99  A    between atoms: _248  and  _250
REMARK  100  A    between atoms: _250  and  _251
REMARK  101  A    between atoms: _250  and  _253
REMARK  102  A    between atoms: _253  and  _254
REMARK  103  A    between atoms: _259  and  _261
REMARK  104  A    between atoms: _261  and  _262
REMARK  105  A    between atoms: _261  and  _264
REMARK  106  A    between atoms: _264  and  _265
REMARK  107  A    between atoms: _265  and  _266
REMARK  108  A    between atoms: _266  and  _267
REMARK  109  A    between atoms: _276  and  _278
REMARK  110  A    between atoms: _278  and  _279
REMARK  111  A    between atoms: _278  and  _281
REMARK  112  A    between atoms: _281  and  _282
REMARK  113  A    between atoms: _285  and  _287
REMARK  114  A    between atoms: _287  and  _288
REMARK  115  A    between atoms: _290  and  _292
REMARK  116  A    between atoms: _292  and  _293
REMARK  117  A    between atoms: _292  and  _295
REMARK  118  A    between atoms: _298  and  _300
REMARK  119  A    between atoms: _300  and  _301
REMARK  120  A    between atoms: _303  and  _305
REMARK  121  A    between atoms: _305  and  _306
REMARK  122  A    between atoms: _308  and  _310
REMARK  123  A    between atoms: _310  and  _311
REMARK  124  A    between atoms: _310  and  _313
REMARK  125  A    between atoms: _313  and  _314
REMARK  126  A    between atoms: _320  and  _322
REMARK  127  A    between atoms: _322  and  _323
REMARK  128  A    between atoms: _322  and  _325
REMARK  129  A    between atoms: _325  and  _326
REMARK  130  A    between atoms: _329  and  _331
REMARK  131  A    between atoms: _331  and  _332
REMARK  132  A    between atoms: _334  and  _336
REMARK  133  A    between atoms: _336  and  _337
REMARK  134  A    between atoms: _336  and  _339
REMARK  135  A    between atoms: _339  and  _340
REMARK  136  A    between atoms: _345  and  _347
REMARK  137  A    between atoms: _347  and  _348
REMARK  138  A    between atoms: _347  and  _350
REMARK  139  A    between atoms: _350  and  _351
REMARK  140  A    between atoms: _351  and  _352
REMARK  141  A    between atoms: _352  and  _353
REMARK  142  A    between atoms: _362  and  _364
REMARK  143  A    between atoms: _364  and  _365
REMARK  144  A    between atoms: _364  and  _367
REMARK  145  A    between atoms: _367  and  _368
REMARK  146  A    between atoms: _371  and  _373
REMARK  147  A    between atoms: _373  and  _374
REMARK  148  A    between atoms: _373  and  _376
REMARK  149  A    between atoms: _376  and  _377
REMARK  150  A    between atoms: _377  and  _378
REMARK  151  A    between atoms: _378  and  _379
REMARK  152  A    between atoms: _388  and  _390
REMARK  153  A    between atoms: _390  and  _391
REMARK  154  A    between atoms: _390  and  _393
REMARK  155  A    between atoms: _393  and  _394
REMARK  156  A    between atoms: _396  and  _398
REMARK  157  A    between atoms: _398  and  _399
REMARK  158  A    between atoms: _401  and  _403
REMARK  159  A    between atoms: _403  and  _404
REMARK  160  A    between atoms: _407  and  _409
REMARK  161  A    between atoms: _409  and  _410
REMARK  162  A    between atoms: _412  and  _414
REMARK  163  A    between atoms: _414  and  _415
REMARK  164  A    between atoms: _414  and  _417
REMARK  165  A    between atoms: _417  and  _418
REMARK  166  A    between atoms: _423  and  _424
REMARK  167  A    between atoms: _426  and  _428
REMARK  168  A    between atoms: _428  and  _429
REMARK  169  A    between atoms: _428  and  _431
REMARK  170  A    between atoms: _431  and  _432
REMARK  171  A    between atoms: _435  and  _437
REMARK  172  A    between atoms: _437  and  _438
REMARK  173  A    between atoms: _440  and  _442
REMARK  174  A    between atoms: _442  and  _443
REMARK  175  A    between atoms: _442  and  _445
REMARK  176  A    between atoms: _445  and  _446
REMARK  177  A    between atoms: _446  and  _447
REMARK  178  A    between atoms: _452  and  _454
REMARK  179  A    between atoms: _454  and  _455
REMARK  180  A    between atoms: _454  and  _457
REMARK  181  A    between atoms: _457  and  _458
REMARK  182  A    between atoms: _461  and  _463
REMARK  183  A    between atoms: _463  and  _464
REMARK  184  A    between atoms: _463  and  _466
REMARK  185  A    between atoms: _466  and  _467
REMARK  186  A    between atoms: _467  and  _468
REMARK  187  A    between atoms: _473  and  _475
REMARK  188  A    between atoms: _475  and  _476
REMARK  189  A    between atoms: _475  and  _478
REMARK  190  A    between atoms: _478  and  _479
REMARK  191  A    between atoms: _482  and  _484
REMARK  192  A    between atoms: _484  and  _485
REMARK  193  A    between atoms: _484  and  _487
REMARK  194  A    between atoms: _487  and  _488
REMARK  195  A    between atoms: _488  and  _489
REMARK  196  A    between atoms: _489  and  _490
REMARK  197  A    between atoms: _499  and  _501
REMARK  198  A    between atoms: _501  and  _502
REMARK  199  A    between atoms: _501  and  _504
REMARK  200  A    between atoms: _504  and  _505
REMARK  201  A    between atoms: _507  and  _509
REMARK  202  A    between atoms: _509  and  _510
REMARK  203  A    between atoms: _513  and  _515
REMARK  204  A    between atoms: _515  and  _516
REMARK  205  A    between atoms: _515  and  _518
REMARK  206  A    between atoms: _518  and  _519
REMARK  207  A    between atoms: _522  and  _524
REMARK  208  A    between atoms: _524  and  _525
REMARK  209  A    between atoms: _527  and  _529
REMARK  210  A    between atoms: _529  and  _530
REMARK  211  A    between atoms: _529  and  _532
REMARK  212  A    between atoms: _532  and  _533
REMARK  213  A    between atoms: _538  and  _539
REMARK  214  A    between atoms: _541  and  _543
REMARK  215  A    between atoms: _543  and  _544
REMARK  216  A    between atoms: _543  and  _546
REMARK  217  A    between atoms: _546  and  _547
REMARK  218  A    between atoms: _550  and  _552
REMARK  219  A    between atoms: _552  and  _553
REMARK  220  A    between atoms: _555  and  _557
REMARK  221  A    between atoms: _557  and  _558
REMARK  222  A    between atoms: _557  and  _560
REMARK  223  A    between atoms: _560  and  _561
REMARK  224  A    between atoms: _566  and  _568
REMARK  225  A    between atoms: _568  and  _569
REMARK  226  A    between atoms: _568  and  _571
REMARK  227  A    between atoms: _571  and  _572
REMARK  228  A    between atoms: _575  and  _577
REMARK  229  A    between atoms: _577  and  _578
REMARK  230  A    between atoms: _577  and  _580
REMARK  231  A    between atoms: _580  and  _581
REMARK  232  A    between atoms: _587  and  _589
REMARK  233  A    between atoms: _589  and  _590
REMARK  234  A    between atoms: _589  and  _592
REMARK  235  A    between atoms: _592  and  _593
REMARK  236  A    between atoms: _593  and  _594
REMARK  237  A    between atoms: _594  and  _595
REMARK  238  A    between atoms: _604  and  _606
REMARK  239  A    between atoms: _606  and  _607
REMARK  240  A    between atoms: _606  and  _609
REMARK  241  A    between atoms: _609  and  _610
REMARK  242  A    between atoms: _612  and  _614
REMARK  243  A    between atoms: _614  and  _615
REMARK  244  A    between atoms: _617  and  _619
REMARK  245  A    between atoms: _619  and  _620
REMARK  246  A    between atoms: _619  and  _622
REMARK                            x       y       z     vdW  Elec       q    Type
REMARK                         _______ _______ _______ _____ _____    ______ ____
ROOT
ATOM      1  O   HOH     1       7.781  -1.554 -14.103  0.00  0.00    +0.000 OA
ENDROOT
TORSDOF 0
REMARK  Name = ../refined-set-2016/4xmb/4xmb_pocket.pdb
REMARK  246 active torsions:
REMARK  status: ('A' for Active; 'I' for Inactive)
REMARK    1  A    between atoms: _1  and  _3
REMARK    2  A    between atoms: _3  and  _4
REMARK    3  A    between atoms: _6  and  _8
REMARK    4  A    between atoms: _8  and  _9
REMARK    5  A    between atoms: _8  and  _11
REMARK    6  A    between atoms: _11  and  _12
REMARK    7  A    between atoms: _17  and  _18
REMARK    8  A    between atoms: _20  and  _22
REMARK    9  A    between atoms: _22  and  _23
REMARK   10  A    between atoms: _22  and  _25
REMARK   11  A    between atoms: _25  and  _26
REMARK   12  A    between atoms: _32  and  _34
REMARK   13  A    between atoms: _34  and  _35
REMARK   14  A    between atoms: _34  and  _37
REMARK   15  A    between atoms: _37  and  _38
REMARK   16  A    between atoms: _38  and  _39
REMARK   17  A    between atoms: _39  and  _40
REMARK   18  A    between atoms: _49  and  _51
REMARK   19  A    between atoms: _51  and  _52
REMARK   20  A    between atoms: _51  and  _54
REMARK   21  A    between atoms: _54  and  _55
REMARK   22  A    between atoms: _55  and  _56
REMARK   23  A    between atoms: _61  and  _63
REMARK   24  A    between atoms: _63  and  _64
REMARK   25  A    between atoms: _63  and  _66
REMARK   26  A    between atoms: _66  and  _67
REMARK   27  A    between atoms: _69  and  _71
REMARK   28  A    between atoms: _71  and  _72
REMARK   29  A    between atoms: _71  and  _74
REMARK   30  A    between atoms: _74  and  _75
REMARK   31  A    between atoms: _78  and  _80
REMARK   32  A    between atoms: _80  and  _81
REMARK   33  A    between atoms: _80  and  _83
REMARK   34  A    between atoms: _83  and  _84
REMARK   35  A    between atoms: _84  and  _85
REMARK   36  A    between atoms: _85  and  _86
REMARK   37  A    between atoms: _95  and  _97
REMARK   38  A    between atoms: _97  and  _98
REMARK   39  A    between atoms: _97  and  _100
REMARK   40  A    between atoms: _100  and  _101
REMARK   41  A    between atoms: _103  and  _105
REMARK   42  A    between atoms: _105  and  _106
REMARK   43  A    between atoms: _108  and  _110
REMARK   44  A    between atoms: _110  and  _111
REMARK   45  A    between atoms: _110  and  _113
REMARK   46  A    between atoms: _113  and  _114
REMARK   47  A    between atoms: _117  and  _119
REMARK   48  A    between atoms: _119  and  _120
REMARK   49  A    between atoms: _122  and  _124
REMARK   50  A    between atoms: _124  and  _125
REMARK   51  A    between atoms: _127  and  _129
REMARK   52  A    between atoms: _129  and  _130
REMARK   53  A    between atoms: _129  and  _132
REMARK   54  A    between atoms: _132  and  _133
REMARK   55  A    between atoms: _133  and  _134
REMARK   56  A    between atoms: _134  and  _135
REMARK   57  A    between atoms: _144  and  _146
REMARK   58  A    between atoms: _146  and  _147
REMARK   59  A    between atoms: _146  and  _149
REMARK   60  A    between atoms: _149  and  _150
REMARK   61  A    between atoms: _155  and  _157
REMARK   62  A    between atoms: _157  and  _158
REMARK   63  A    between atoms: _157  and  _160
REMARK   64  A    between atoms: _160  and  _161
REMARK   65  A    between atoms: _164  and  _166
REMARK   66  A    between atoms: _166  and  _167
REMARK   67  A    between atoms: _166  and  _169
REMARK   68  A    between atoms: _169  and  _170
REMARK   69  A    between atoms: _173  and  _175
REMARK   70  A    between atoms: _175  and  _176
REMARK   71  A    between atoms: _175  and  _178
REMARK   72  A    between atoms: _178  and  _179
REMARK   73  A    between atoms: _181  and  _183
REMARK   74  A    between atoms: _183  and  _184
REMARK   75  A    between atoms: _183  and  _186
REMARK   76  A    between atoms: _186  and  _187
REMARK   77  A    between atoms: _187  and  _188
REMARK   78  A    between atoms: _188  and  _189
REMARK   79  A    between atoms: _198  and  _200
REMARK   80  A    between atoms: _200  and  _201
REMARK   81  A    between atoms: _200  and  _203
REMARK   82  A    between atoms: _203  and  _204
REMARK   83  A    between atoms: _209  and  _211
REMARK   84  A    between atoms: _211  and  _212
REMARK   85  A    between atoms: _211  and  _214
REMARK   86  A    between atoms: _214  and  _215
REMARK   87  A    between atoms: _215  and  _216
REMARK   88  A    between atoms: _216  and  _217
REMARK   89  A    between atoms: _226  and  _228
REMARK   90  A    between atoms: _228  and  _229
REMARK   91  A    between atoms: _228  and  _231
REMARK   92  A    between atoms: _231  and  _232
REMARK   93  A    between atoms: _235  and  _237
REMARK   94  A    between atoms: _237  and  _238
REMARK   95  A    between atoms: _240  and  _242
REMARK   96  A    between atoms: _242  and  _243
REMARK   97  A    between atoms: _242  and  _245
REMARK   98  A    between atoms: _245  and  _246
REMARK   99  A    between atoms: _248  and  _250
REMARK  100  A    between atoms: _250  and  _251
REMARK  101  A    between atoms: _250  and  _253
REMARK  102  A    between atoms: _253  and  _254
REMARK  103  A    between atoms: _259  and  _261
REMARK  104  A    between atoms: _261  and  _262
REMARK  105  A    between atoms: _261  and  _264
REMARK  106  A    between atoms: _264  and  _265
REMARK  107  A    between atoms: _265  and  _266
REMARK  108  A    between atoms: _266  and  _267
REMARK  109  A    between atoms: _276  and  _278
REMARK  110  A    between atoms: _278  and  _279
REMARK  111  A    between atoms: _278  and  _281
REMARK  112  A    between atoms: _281  and  _282
REMARK  113  A    between atoms: _285  and  _287
REMARK  114  A    between atoms: _287  and  _288
REMARK  115  A    between atoms: _290  and  _292
REMARK  116  A    between atoms: _292  and  _293
REMARK  117  A    between atoms: _292  and  _295
REMARK  118  A    between atoms: _298  and  _300
REMARK  119  A    between atoms: _300  and  _301
REMARK  120  A    between atoms: _303  and  _305
REMARK  121  A    between atoms: _305  and  _306
REMARK  122  A    between atoms: _308  and  _310
REMARK  123  A    between atoms: _310  and  _311
REMARK  124  A    between atoms: _310  and  _313
REMARK  125  A    between atoms: _313  and  _314
REMARK  126  A    between atoms: _320  and  _322
REMARK  127  A    between atoms: _322  and  _323
REMARK  128  A    between atoms: _322  and  _325
REMARK  129  A    between atoms: _325  and  _326
REMARK  130  A    between atoms: _329  and  _331
REMARK  131  A    between atoms: _331  and  _332
REMARK  132  A    between atoms: _334  and  _336
REMARK  133  A    between atoms: _336  and  _337
REMARK  134  A    between atoms: _336  and  _339
REMARK  135  A    between atoms: _339  and  _340
REMARK  136  A    between atoms: _345  and  _347
REMARK  137  A    between atoms: _347  and  _348
REMARK  138  A    between atoms: _347  and  _350
REMARK  139  A    between atoms: _350  and  _351
REMARK  140  A    between atoms: _351  and  _352
REMARK  141  A    between atoms: _352  and  _353
REMARK  142  A    between atoms: _362  and  _364
REMARK  143  A    between atoms: _364  and  _365
REMARK  144  A    between atoms: _364  and  _367
REMARK  145  A    between atoms: _367  and  _368
REMARK  146  A    between atoms: _371  and  _373
REMARK  147  A    between atoms: _373  and  _374
REMARK  148  A    between atoms: _373  and  _376
REMARK  149  A    between atoms: _376  and  _377
REMARK  150  A    between atoms: _377  and  _378
REMARK  151  A    between atoms: _378  and  _379
REMARK  152  A    between atoms: _388  and  _390
REMARK  153  A    between atoms: _390  and  _391
REMARK  154  A    between atoms: _390  and  _393
REMARK  155  A    between atoms: _393  and  _394
REMARK  156  A    between atoms: _396  and  _398
REMARK  157  A    between atoms: _398  and  _399
REMARK  158  A    between atoms: _401  and  _403
REMARK  159  A    between atoms: _403  and  _404
REMARK  160  A    between atoms: _407  and  _409
REMARK  161  A    between atoms: _409  and  _410
REMARK  162  A    between atoms: _412  and  _414
REMARK  163  A    between atoms: _414  and  _415
REMARK  164  A    between atoms: _414  and  _417
REMARK  165  A    between atoms: _417  and  _418
REMARK  166  A    between atoms: _423  and  _424
REMARK  167  A    between atoms: _426  and  _428
REMARK  168  A    between atoms: _428  and  _429
REMARK  169  A    between atoms: _428  and  _431
REMARK  170  A    between atoms: _431  and  _432
REMARK  171  A    between atoms: _435  and  _437
REMARK  172  A    between atoms: _437  and  _438
REMARK  173  A    between atoms: _440  and  _442
REMARK  174  A    between atoms: _442  and  _443
REMARK  175  A    between atoms: _442  and  _445
REMARK  176  A    between atoms: _445  and  _446
REMARK  177  A    between atoms: _446  and  _447
REMARK  178  A    between atoms: _452  and  _454
REMARK  179  A    between atoms: _454  and  _455
REMARK  180  A    between atoms: _454  and  _457
REMARK  181  A    between atoms: _457  and  _458
REMARK  182  A    between atoms: _461  and  _463
REMARK  183  A    between atoms: _463  and  _464
REMARK  184  A    between atoms: _463  and  _466
REMARK  185  A    between atoms: _466  and  _467
REMARK  186  A    between atoms: _467  and  _468
REMARK  187  A    between atoms: _473  and  _475
REMARK  188  A    between atoms: _475  and  _476
REMARK  189  A    between atoms: _475  and  _478
REMARK  190  A    between atoms: _478  and  _479
REMARK  191  A    between atoms: _482  and  _484
REMARK  192  A    between atoms: _484  and  _485
REMARK  193  A    between atoms: _484  and  _487
REMARK  194  A    between atoms: _487  and  _488
REMARK  195  A    between atoms: _488  and  _489
REMARK  196  A    between atoms: _489  and  _490
REMARK  197  A    between atoms: _499  and  _501
REMARK  198  A    between atoms: _501  and  _502
REMARK  199  A    between atoms: _501  and  _504
REMARK  200  A    between atoms: _504  and  _505
REMARK  201  A    between atoms: _507  and  _509
REMARK  202  A    between atoms: _509  and  _510
REMARK  203  A    between atoms: _513  and  _515
REMARK  204  A    between atoms: _515  and  _516
REMARK  205  A    between atoms: _515  and  _518
REMARK  206  A    between atoms: _518  and  _519
REMARK  207  A    between atoms: _522  and  _524
REMARK  208  A    between atoms: _524  and  _525
REMARK  209  A    between atoms: _527  and  _529
REMARK  210  A    between atoms: _529  and  _530
REMARK  211  A    between atoms: _529  and  _532
REMARK  212  A    between atoms: _532  and  _533
REMARK  213  A    between atoms: _538  and  _539
REMARK  214  A    between atoms: _541  and  _543
REMARK  215  A    between atoms: _543  and  _544
REMARK  216  A    between atoms: _543  and  _546
REMARK  217  A    between atoms: _546  and  _547
REMARK  218  A    between atoms: _550  and  _552
REMARK  219  A    between atoms: _552  and  _553
REMARK  220  A    between atoms: _555  and  _557
REMARK  221  A    between atoms: _557  and  _558
REMARK  222  A    between atoms: _557  and  _560
REMARK  223  A    between atoms: _560  and  _561
REMARK  224  A    between atoms: _566  and  _568
REMARK  225  A    between atoms: _568  and  _569
REMARK  226  A    between atoms: _568  and  _571
REMARK  227  A    between atoms: _571  and  _572
REMARK  228  A    between atoms: _575  and  _577
REMARK  229  A    between atoms: _577  and  _578
REMARK  230  A    between atoms: _577  and  _580
REMARK  231  A    between atoms: _580  and  _581
REMARK  232  A    between atoms: _587  and  _589
REMARK  233  A    between atoms: _589  and  _590
REMARK  234  A    between atoms: _589  and  _592
REMARK  235  A    between atoms: _592  and  _593
REMARK  236  A    between atoms: _593  and  _594
REMARK  237  A    between atoms: _594  and  _595
REMARK  238  A    between atoms: _604  and  _606
REMARK  239  A    between atoms: _606  and  _607
REMARK  240  A    between atoms: _606  and  _609
REMARK  241  A    between atoms: _609  and  _610
REMARK  242  A    between atoms: _612  and  _614
REMARK  243  A    between atoms: _614  and  _615
REMARK  244  A    between atoms: _617  and  _619
REMARK  245  A    between atoms: _619  and  _620
REMARK  246  A    between atoms: _619  and  _622
REMARK                            x       y       z     vdW  Elec       q    Type
REMARK                         _______ _______ _______ _____ _____    ______ ____
ROOT
ATOM      1  O   HOH     1       8.426   0.450 -17.538  0.00  0.00    +0.000 OA
ENDROOT
TORSDOF 0
REMARK  Name = ../refined-set-2016/4xmb/4xmb_pocket.pdb
REMARK  246 active torsions:
REMARK  status: ('A' for Active; 'I' for Inactive)
REMARK    1  A    between atoms: _1  and  _3
REMARK    2  A    between atoms: _3  and  _4
REMARK    3  A    between atoms: _6  and  _8
REMARK    4  A    between atoms: _8  and  _9
REMARK    5  A    between atoms: _8  and  _11
REMARK    6  A    between atoms: _11  and  _12
REMARK    7  A    between atoms: _17  and  _18
REMARK    8  A    between atoms: _20  and  _22
REMARK    9  A    between atoms: _22  and  _23
REMARK   10  A    between atoms: _22  and  _25
REMARK   11  A    between atoms: _25  and  _26
REMARK   12  A    between atoms: _32  and  _34
REMARK   13  A    between atoms: _34  and  _35
REMARK   14  A    between atoms: _34  and  _37
REMARK   15  A    between atoms: _37  and  _38
REMARK   16  A    between atoms: _38  and  _39
REMARK   17  A    between atoms: _39  and  _40
REMARK   18  A    between atoms: _49  and  _51
REMARK   19  A    between atoms: _51  and  _52
REMARK   20  A    between atoms: _51  and  _54
REMARK   21  A    between atoms: _54  and  _55
REMARK   22  A    between atoms: _55  and  _56
REMARK   23  A    between atoms: _61  and  _63
REMARK   24  A    between atoms: _63  and  _64
REMARK   25  A    between atoms: _63  and  _66
REMARK   26  A    between atoms: _66  and  _67
REMARK   27  A    between atoms: _69  and  _71
REMARK   28  A    between atoms: _71  and  _72
REMARK   29  A    between atoms: _71  and  _74
REMARK   30  A    between atoms: _74  and  _75
REMARK   31  A    between atoms: _78  and  _80
REMARK   32  A    between atoms: _80  and  _81
REMARK   33  A    between atoms: _80  and  _83
REMARK   34  A    between atoms: _83  and  _84
REMARK   35  A    between atoms: _84  and  _85
REMARK   36  A    between atoms: _85  and  _86
REMARK   37  A    between atoms: _95  and  _97
REMARK   38  A    between atoms: _97  and  _98
REMARK   39  A    between atoms: _97  and  _100
REMARK   40  A    between atoms: _100  and  _101
REMARK   41  A    between atoms: _103  and  _105
REMARK   42  A    between atoms: _105  and  _106
REMARK   43  A    between atoms: _108  and  _110
REMARK   44  A    between atoms: _110  and  _111
REMARK   45  A    between atoms: _110  and  _113
REMARK   46  A    between atoms: _113  and  _114
REMARK   47  A    between atoms: _117  and  _119
REMARK   48  A    between atoms: _119  and  _120
REMARK   49  A    between atoms: _122  and  _124
REMARK   50  A    between atoms: _124  and  _125
REMARK   51  A    between atoms: _127  and  _129
REMARK   52  A    between atoms: _129  and  _130
REMARK   53  A    between atoms: _129  and  _132
REMARK   54  A    between atoms: _132  and  _133
REMARK   55  A    between atoms: _133  and  _134
REMARK   56  A    between atoms: _134  and  _135
REMARK   57  A    between atoms: _144  and  _146
REMARK   58  A    between atoms: _146  and  _147
REMARK   59  A    between atoms: _146  and  _149
REMARK   60  A    between atoms: _149  and  _150
REMARK   61  A    between atoms: _155  and  _157
REMARK   62  A    between atoms: _157  and  _158
REMARK   63  A    between atoms: _157  and  _160
REMARK   64  A    between atoms: _160  and  _161
REMARK   65  A    between atoms: _164  and  _166
REMARK   66  A    between atoms: _166  and  _167
REMARK   67  A    between atoms: _166  and  _169
REMARK   68  A    between atoms: _169  and  _170
REMARK   69  A    between atoms: _173  and  _175
REMARK   70  A    between atoms: _175  and  _176
REMARK   71  A    between atoms: _175  and  _178
REMARK   72  A    between atoms: _178  and  _179
REMARK   73  A    between atoms: _181  and  _183
REMARK   74  A    between atoms: _183  and  _184
REMARK   75  A    between atoms: _183  and  _186
REMARK   76  A    between atoms: _186  and  _187
REMARK   77  A    between atoms: _187  and  _188
REMARK   78  A    between atoms: _188  and  _189
REMARK   79  A    between atoms: _198  and  _200
REMARK   80  A    between atoms: _200  and  _201
REMARK   81  A    between atoms: _200  and  _203
REMARK   82  A    between atoms: _203  and  _204
REMARK   83  A    between atoms: _209  and  _211
REMARK   84  A    between atoms: _211  and  _212
REMARK   85  A    between atoms: _211  and  _214
REMARK   86  A    between atoms: _214  and  _215
REMARK   87  A    between atoms: _215  and  _216
REMARK   88  A    between atoms: _216  and  _217
REMARK   89  A    between atoms: _226  and  _228
REMARK   90  A    between atoms: _228  and  _229
REMARK   91  A    between atoms: _228  and  _231
REMARK   92  A    between atoms: _231  and  _232
REMARK   93  A    between atoms: _235  and  _237
REMARK   94  A    between atoms: _237  and  _238
REMARK   95  A    between atoms: _240  and  _242
REMARK   96  A    between atoms: _242  and  _243
REMARK   97  A    between atoms: _242  and  _245
REMARK   98  A    between atoms: _245  and  _246
REMARK   99  A    between atoms: _248  and  _250
REMARK  100  A    between atoms: _250  and  _251
REMARK  101  A    between atoms: _250  and  _253
REMARK  102  A    between atoms: _253  and  _254
REMARK  103  A    between atoms: _259  and  _261
REMARK  104  A    between atoms: _261  and  _262
REMARK  105  A    between atoms: _261  and  _264
REMARK  106  A    between atoms: _264  and  _265
REMARK  107  A    between atoms: _265  and  _266
REMARK  108  A    between atoms: _266  and  _267
REMARK  109  A    between atoms: _276  and  _278
REMARK  110  A    between atoms: _278  and  _279
REMARK  111  A    between atoms: _278  and  _281
REMARK  112  A    between atoms: _281  and  _282
REMARK  113  A    between atoms: _285  and  _287
REMARK  114  A    between atoms: _287  and  _288
REMARK  115  A    between atoms: _290  and  _292
REMARK  116  A    between atoms: _292  and  _293
REMARK  117  A    between atoms: _292  and  _295
REMARK  118  A    between atoms: _298  and  _300
REMARK  119  A    between atoms: _300  and  _301
REMARK  120  A    between atoms: _303  and  _305
REMARK  121  A    between atoms: _305  and  _306
REMARK  122  A    between atoms: _308  and  _310
REMARK  123  A    between atoms: _310  and  _311
REMARK  124  A    between atoms: _310  and  _313
REMARK  125  A    between atoms: _313  and  _314
REMARK  126  A    between atoms: _320  and  _322
REMARK  127  A    between atoms: _322  and  _323
REMARK  128  A    between atoms: _322  and  _325
REMARK  129  A    between atoms: _325  and  _326
REMARK  130  A    between atoms: _329  and  _331
REMARK  131  A    between atoms: _331  and  _332
REMARK  132  A    between atoms: _334  and  _336
REMARK  133  A    between atoms: _336  and  _337
REMARK  134  A    between atoms: _336  and  _339
REMARK  135  A    between atoms: _339  and  _340
REMARK  136  A    between atoms: _345  and  _347
REMARK  137  A    between atoms: _347  and  _348
REMARK  138  A    between atoms: _347  and  _350
REMARK  139  A    between atoms: _350  and  _351
REMARK  140  A    between atoms: _351  and  _352
REMARK  141  A    between atoms: _352  and  _353
REMARK  142  A    between atoms: _362  and  _364
REMARK  143  A    between atoms: _364  and  _365
REMARK  144  A    between atoms: _364  and  _367
REMARK  145  A    between atoms: _367  and  _368
REMARK  146  A    between atoms: _371  and  _373
REMARK  147  A    between atoms: _373  and  _374
REMARK  148  A    between atoms: _373  and  _376
REMARK  149  A    between atoms: _376  and  _377
REMARK  150  A    between atoms: _377  and  _378
REMARK  151  A    between atoms: _378  and  _379
REMARK  152  A    between atoms: _388  and  _390
REMARK  153  A    between atoms: _390  and  _391
REMARK  154  A    between atoms: _390  and  _393
REMARK  155  A    between atoms: _393  and  _394
REMARK  156  A    between atoms: _396  and  _398
REMARK  157  A    between atoms: _398  and  _399
REMARK  158  A    between atoms: _401  and  _403
REMARK  159  A    between atoms: _403  and  _404
REMARK  160  A    between atoms: _407  and  _409
REMARK  161  A    between atoms: _409  and  _410
REMARK  162  A    between atoms: _412  and  _414
REMARK  163  A    between atoms: _414  and  _415
REMARK  164  A    between atoms: _414  and  _417
REMARK  165  A    between atoms: _417  and  _418
REMARK  166  A    between atoms: _423  and  _424
REMARK  167  A    between atoms: _426  and  _428
REMARK  168  A    between atoms: _428  and  _429
REMARK  169  A    between atoms: _428  and  _431
REMARK  170  A    between atoms: _431  and  _432
REMARK  171  A    between atoms: _435  and  _437
REMARK  172  A    between atoms: _437  and  _438
REMARK  173  A    between atoms: _440  and  _442
REMARK  174  A    between atoms: _442  and  _443
REMARK  175  A    between atoms: _442  and  _445
REMARK  176  A    between atoms: _445  and  _446
REMARK  177  A    between atoms: _446  and  _447
REMARK  178  A    between atoms: _452  and  _454
REMARK  179  A    between atoms: _454  and  _455
REMARK  180  A    between atoms: _454  and  _457
REMARK  181  A    between atoms: _457  and  _458
REMARK  182  A    between atoms: _461  and  _463
REMARK  183  A    between atoms: _463  and  _464
REMARK  184  A    between atoms: _463  and  _466
REMARK  185  A    between atoms: _466  and  _467
REMARK  186  A    between atoms: _467  and  _468
REMARK  187  A    between atoms: _473  and  _475
REMARK  188  A    between atoms: _475  and  _476
REMARK  189  A    between atoms: _475  and  _478
REMARK  190  A    between atoms: _478  and  _479
REMARK  191  A    between atoms: _482  and  _484
REMARK  192  A    between atoms: _484  and  _485
REMARK  193  A    between atoms: _484  and  _487
REMARK  194  A    between atoms: _487  and  _488
REMARK  195  A    between atoms: _488  and  _489
REMARK  196  A    between atoms: _489  and  _490
REMARK  197  A    between atoms: _499  and  _501
REMARK  198  A    between atoms: _501  and  _502
REMARK  199  A    between atoms: _501  and  _504
REMARK  200  A    between atoms: _504  and  _505
REMARK  201  A    between atoms: _507  and  _509
REMARK  202  A    between atoms: _509  and  _510
REMARK  203  A    between atoms: _513  and  _515
REMARK  204  A    between atoms: _515  and  _516
REMARK  205  A    between atoms: _515  and  _518
REMARK  206  A    between atoms: _518  and  _519
REMARK  207  A    between atoms: _522  and  _524
REMARK  208  A    between atoms: _524  and  _525
REMARK  209  A    between atoms: _527  and  _529
REMARK  210  A    between atoms: _529  and  _530
REMARK  211  A    between atoms: _529  and  _532
REMARK  212  A    between atoms: _532  and  _533
REMARK  213  A    between atoms: _538  and  _539
REMARK  214  A    between atoms: _541  and  _543
REMARK  215  A    between atoms: _543  and  _544
REMARK  216  A    between atoms: _543  and  _546
REMARK  217  A    between atoms: _546  and  _547
REMARK  218  A    between atoms: _550  and  _552
REMARK  219  A    between atoms: _552  and  _553
REMARK  220  A    between atoms: _555  and  _557
REMARK  221  A    between atoms: _557  and  _558
REMARK  222  A    between atoms: _557  and  _560
REMARK  223  A    between atoms: _560  and  _561
REMARK  224  A    between atoms: _566  and  _568
REMARK  225  A    between atoms: _568  and  _569
REMARK  226  A    between atoms: _568  and  _571
REMARK  227  A    between atoms: _571  and  _572
REMARK  228  A    between atoms: _575  and  _577
REMARK  229  A    between atoms: _577  and  _578
REMARK  230  A    between atoms: _577  and  _580
REMARK  231  A    between atoms: _580  and  _581
REMARK  232  A    between atoms: _587  and  _589
REMARK  233  A    between atoms: _589  and  _590
REMARK  234  A    between atoms: _589  and  _592
REMARK  235  A    between atoms: _592  and  _593
REMARK  236  A    between atoms: _593  and  _594
REMARK  237  A    between atoms: _594  and  _595
REMARK  238  A    between atoms: _604  and  _606
REMARK  239  A    between atoms: _606  and  _607
REMARK  240  A    between atoms: _606  and  _609
REMARK  241  A    between atoms: _609  and  _610
REMARK  242  A    between atoms: _612  and  _614
REMARK  243  A    between atoms: _614  and  _615
REMARK  244  A    between atoms: _617  and  _619
REMARK  245  A    between atoms: _619  and  _620
REMARK  246  A    between atoms: _619  and  _622
REMARK                            x       y       z     vdW  Elec       q    Type
REMARK                         _______ _______ _______ _____ _____    ______ ____
ROOT
ATOM      1  O   HOH     1      12.576   3.806 -16.550  0.00  0.00    +0.000 OA
ENDROOT
TORSDOF 0
REMARK  Name = ../refined-set-2016/4xmb/4xmb_pocket.pdb
REMARK  246 active torsions:
REMARK  status: ('A' for Active; 'I' for Inactive)
REMARK    1  A    between atoms: _1  and  _3
REMARK    2  A    between atoms: _3  and  _4
REMARK    3  A    between atoms: _6  and  _8
REMARK    4  A    between atoms: _8  and  _9
REMARK    5  A    between atoms: _8  and  _11
REMARK    6  A    between atoms: _11  and  _12
REMARK    7  A    between atoms: _17  and  _18
REMARK    8  A    between atoms: _20  and  _22
REMARK    9  A    between atoms: _22  and  _23
REMARK   10  A    between atoms: _22  and  _25
REMARK   11  A    between atoms: _25  and  _26
REMARK   12  A    between atoms: _32  and  _34
REMARK   13  A    between atoms: _34  and  _35
REMARK   14  A    between atoms: _34  and  _37
REMARK   15  A    between atoms: _37  and  _38
REMARK   16  A    between atoms: _38  and  _39
REMARK   17  A    between atoms: _39  and  _40
REMARK   18  A    between atoms: _49  and  _51
REMARK   19  A    between atoms: _51  and  _52
REMARK   20  A    between atoms: _51  and  _54
REMARK   21  A    between atoms: _54  and  _55
REMARK   22  A    between atoms: _55  and  _56
REMARK   23  A    between atoms: _61  and  _63
REMARK   24  A    between atoms: _63  and  _64
REMARK   25  A    between atoms: _63  and  _66
REMARK   26  A    between atoms: _66  and  _67
REMARK   27  A    between atoms: _69  and  _71
REMARK   28  A    between atoms: _71  and  _72
REMARK   29  A    between atoms: _71  and  _74
REMARK   30  A    between atoms: _74  and  _75
REMARK   31  A    between atoms: _78  and  _80
REMARK   32  A    between atoms: _80  and  _81
REMARK   33  A    between atoms: _80  and  _83
REMARK   34  A    between atoms: _83  and  _84
REMARK   35  A    between atoms: _84  and  _85
REMARK   36  A    between atoms: _85  and  _86
REMARK   37  A    between atoms: _95  and  _97
REMARK   38  A    between atoms: _97  and  _98
REMARK   39  A    between atoms: _97  and  _100
REMARK   40  A    between atoms: _100  and  _101
REMARK   41  A    between atoms: _103  and  _105
REMARK   42  A    between atoms: _105  and  _106
REMARK   43  A    between atoms: _108  and  _110
REMARK   44  A    between atoms: _110  and  _111
REMARK   45  A    between atoms: _110  and  _113
REMARK   46  A    between atoms: _113  and  _114
REMARK   47  A    between atoms: _117  and  _119
REMARK   48  A    between atoms: _119  and  _120
REMARK   49  A    between atoms: _122  and  _124
REMARK   50  A    between atoms: _124  and  _125
REMARK   51  A    between atoms: _127  and  _129
REMARK   52  A    between atoms: _129  and  _130
REMARK   53  A    between atoms: _129  and  _132
REMARK   54  A    between atoms: _132  and  _133
REMARK   55  A    between atoms: _133  and  _134
REMARK   56  A    between atoms: _134  and  _135
REMARK   57  A    between atoms: _144  and  _146
REMARK   58  A    between atoms: _146  and  _147
REMARK   59  A    between atoms: _146  and  _149
REMARK   60  A    between atoms: _149  and  _150
REMARK   61  A    between atoms: _155  and  _157
REMARK   62  A    between atoms: _157  and  _158
REMARK   63  A    between atoms: _157  and  _160
REMARK   64  A    between atoms: _160  and  _161
REMARK   65  A    between atoms: _164  and  _166
REMARK   66  A    between atoms: _166  and  _167
REMARK   67  A    between atoms: _166  and  _169
REMARK   68  A    between atoms: _169  and  _170
REMARK   69  A    between atoms: _173  and  _175
REMARK   70  A    between atoms: _175  and  _176
REMARK   71  A    between atoms: _175  and  _178
REMARK   72  A    between atoms: _178  and  _179
REMARK   73  A    between atoms: _181  and  _183
REMARK   74  A    between atoms: _183  and  _184
REMARK   75  A    between atoms: _183  and  _186
REMARK   76  A    between atoms: _186  and  _187
REMARK   77  A    between atoms: _187  and  _188
REMARK   78  A    between atoms: _188  and  _189
REMARK   79  A    between atoms: _198  and  _200
REMARK   80  A    between atoms: _200  and  _201
REMARK   81  A    between atoms: _200  and  _203
REMARK   82  A    between atoms: _203  and  _204
REMARK   83  A    between atoms: _209  and  _211
REMARK   84  A    between atoms: _211  and  _212
REMARK   85  A    between atoms: _211  and  _214
REMARK   86  A    between atoms: _214  and  _215
REMARK   87  A    between atoms: _215  and  _216
REMARK   88  A    between atoms: _216  and  _217
REMARK   89  A    between atoms: _226  and  _228
REMARK   90  A    between atoms: _228  and  _229
REMARK   91  A    between atoms: _228  and  _231
REMARK   92  A    between atoms: _231  and  _232
REMARK   93  A    between atoms: _235  and  _237
REMARK   94  A    between atoms: _237  and  _238
REMARK   95  A    between atoms: _240  and  _242
REMARK   96  A    between atoms: _242  and  _243
REMARK   97  A    between atoms: _242  and  _245
REMARK   98  A    between atoms: _245  and  _246
REMARK   99  A    between atoms: _248  and  _250
REMARK  100  A    between atoms: _250  and  _251
REMARK  101  A    between atoms: _250  and  _253
REMARK  102  A    between atoms: _253  and  _254
REMARK  103  A    between atoms: _259  and  _261
REMARK  104  A    between atoms: _261  and  _262
REMARK  105  A    between atoms: _261  and  _264
REMARK  106  A    between atoms: _264  and  _265
REMARK  107  A    between atoms: _265  and  _266
REMARK  108  A    between atoms: _266  and  _267
REMARK  109  A    between atoms: _276  and  _278
REMARK  110  A    between atoms: _278  and  _279
REMARK  111  A    between atoms: _278  and  _281
REMARK  112  A    between atoms: _281  and  _282
REMARK  113  A    between atoms: _285  and  _287
REMARK  114  A    between atoms: _287  and  _288
REMARK  115  A    between atoms: _290  and  _292
REMARK  116  A    between atoms: _292  and  _293
REMARK  117  A    between atoms: _292  and  _295
REMARK  118  A    between atoms: _298  and  _300
REMARK  119  A    between atoms: _300  and  _301
REMARK  120  A    between atoms: _303  and  _305
REMARK  121  A    between atoms: _305  and  _306
REMARK  122  A    between atoms: _308  and  _310
REMARK  123  A    between atoms: _310  and  _311
REMARK  124  A    between atoms: _310  and  _313
REMARK  125  A    between atoms: _313  and  _314
REMARK  126  A    between atoms: _320  and  _322
REMARK  127  A    between atoms: _322  and  _323
REMARK  128  A    between atoms: _322  and  _325
REMARK  129  A    between atoms: _325  and  _326
REMARK  130  A    between atoms: _329  and  _331
REMARK  131  A    between atoms: _331  and  _332
REMARK  132  A    between atoms: _334  and  _336
REMARK  133  A    between atoms: _336  and  _337
REMARK  134  A    between atoms: _336  and  _339
REMARK  135  A    between atoms: _339  and  _340
REMARK  136  A    between atoms: _345  and  _347
REMARK  137  A    between atoms: _347  and  _348
REMARK  138  A    between atoms: _347  and  _350
REMARK  139  A    between atoms: _350  and  _351
REMARK  140  A    between atoms: _351  and  _352
REMARK  141  A    between atoms: _352  and  _353
REMARK  142  A    between atoms: _362  and  _364
REMARK  143  A    between atoms: _364  and  _365
REMARK  144  A    between atoms: _364  and  _367
REMARK  145  A    between atoms: _367  and  _368
REMARK  146  A    between atoms: _371  and  _373
REMARK  147  A    between atoms: _373  and  _374
REMARK  148  A    between atoms: _373  and  _376
REMARK  149  A    between atoms: _376  and  _377
REMARK  150  A    between atoms: _377  and  _378
REMARK  151  A    between atoms: _378  and  _379
REMARK  152  A    between atoms: _388  and  _390
REMARK  153  A    between atoms: _390  and  _391
REMARK  154  A    between atoms: _390  and  _393
REMARK  155  A    between atoms: _393  and  _394
REMARK  156  A    between atoms: _396  and  _398
REMARK  157  A    between atoms: _398  and  _399
REMARK  158  A    between atoms: _401  and  _403
REMARK  159  A    between atoms: _403  and  _404
REMARK  160  A    between atoms: _407  and  _409
REMARK  161  A    between atoms: _409  and  _410
REMARK  162  A    between atoms: _412  and  _414
REMARK  163  A    between atoms: _414  and  _415
REMARK  164  A    between atoms: _414  and  _417
REMARK  165  A    between atoms: _417  and  _418
REMARK  166  A    between atoms: _423  and  _424
REMARK  167  A    between atoms: _426  and  _428
REMARK  168  A    between atoms: _428  and  _429
REMARK  169  A    between atoms: _428  and  _431
REMARK  170  A    between atoms: _431  and  _432
REMARK  171  A    between atoms: _435  and  _437
REMARK  172  A    between atoms: _437  and  _438
REMARK  173  A    between atoms: _440  and  _442
REMARK  174  A    between atoms: _442  and  _443
REMARK  175  A    between atoms: _442  and  _445
REMARK  176  A    between atoms: _445  and  _446
REMARK  177  A    between atoms: _446  and  _447
REMARK  178  A    between atoms: _452  and  _454
REMARK  179  A    between atoms: _454  and  _455
REMARK  180  A    between atoms: _454  and  _457
REMARK  181  A    between atoms: _457  and  _458
REMARK  182  A    between atoms: _461  and  _463
REMARK  183  A    between atoms: _463  and  _464
REMARK  184  A    between atoms: _463  and  _466
REMARK  185  A    between atoms: _466  and  _467
REMARK  186  A    between atoms: _467  and  _468
REMARK  187  A    between atoms: _473  and  _475
REMARK  188  A    between atoms: _475  and  _476
REMARK  189  A    between atoms: _475  and  _478
REMARK  190  A    between atoms: _478  and  _479
REMARK  191  A    between atoms: _482  and  _484
REMARK  192  A    between atoms: _484  and  _485
REMARK  193  A    between atoms: _484  and  _487
REMARK  194  A    between atoms: _487  and  _488
REMARK  195  A    between atoms: _488  and  _489
REMARK  196  A    between atoms: _489  and  _490
REMARK  197  A    between atoms: _499  and  _501
REMARK  198  A    between atoms: _501  and  _502
REMARK  199  A    between atoms: _501  and  _504
REMARK  200  A    between atoms: _504  and  _505
REMARK  201  A    between atoms: _507  and  _509
REMARK  202  A    between atoms: _509  and  _510
REMARK  203  A    between atoms: _513  and  _515
REMARK  204  A    between atoms: _515  and  _516
REMARK  205  A    between atoms: _515  and  _518
REMARK  206  A    between atoms: _518  and  _519
REMARK  207  A    between atoms: _522  and  _524
REMARK  208  A    between atoms: _524  and  _525
REMARK  209  A    between atoms: _527  and  _529
REMARK  210  A    between atoms: _529  and  _530
REMARK  211  A    between atoms: _529  and  _532
REMARK  212  A    between atoms: _532  and  _533
REMARK  213  A    between atoms: _538  and  _539
REMARK  214  A    between atoms: _541  and  _543
REMARK  215  A    between atoms: _543  and  _544
REMARK  216  A    between atoms: _543  and  _546
REMARK  217  A    between atoms: _546  and  _547
REMARK  218  A    between atoms: _550  and  _552
REMARK  219  A    between atoms: _552  and  _553
REMARK  220  A    between atoms: _555  and  _557
REMARK  221  A    between atoms: _557  and  _558
REMARK  222  A    between atoms: _557  and  _560
REMARK  223  A    between atoms: _560  and  _561
REMARK  224  A    between atoms: _566  and  _568
REMARK  225  A    between atoms: _568  and  _569
REMARK  226  A    between atoms: _568  and  _571
REMARK  227  A    between atoms: _571  and  _572
REMARK  228  A    between atoms: _575  and  _577
REMARK  229  A    between atoms: _577  and  _578
REMARK  230  A    between atoms: _577  and  _580
REMARK  231  A    between atoms: _580  and  _581
REMARK  232  A    between atoms: _587  and  _589
REMARK  233  A    between atoms: _589  and  _590
REMARK  234  A    between atoms: _589  and  _592
REMARK  235  A    between atoms: _592  and  _593
REMARK  236  A    between atoms: _593  and  _594
REMARK  237  A    between atoms: _594  and  _595
REMARK  238  A    between atoms: _604  and  _606
REMARK  239  A    between atoms: _606  and  _607
REMARK  240  A    between atoms: _606  and  _609
REMARK  241  A    between atoms: _609  and  _610
REMARK  242  A    between atoms: _612  and  _614
REMARK  243  A    between atoms: _614  and  _615
REMARK  244  A    between atoms: _617  and  _619
REMARK  245  A    between atoms: _619  and  _620
REMARK  246  A    between atoms: _619  and  _622
REMARK                            x       y       z     vdW  Elec       q    Type
REMARK                         _______ _______ _______ _____ _____    ______ ____
ROOT
ATOM      1  O   HOH     1      10.021   3.593 -22.334  0.00  0.00    +0.000 OA
ENDROOT
TORSDOF 0
REMARK  Name = ../refined-set-2016/4xmb/4xmb_pocket.pdb
REMARK  246 active torsions:
REMARK  status: ('A' for Active; 'I' for Inactive)
REMARK    1  A    between atoms: _1  and  _3
REMARK    2  A    between atoms: _3  and  _4
REMARK    3  A    between atoms: _6  and  _8
REMARK    4  A    between atoms: _8  and  _9
REMARK    5  A    between atoms: _8  and  _11
REMARK    6  A    between atoms: _11  and  _12
REMARK    7  A    between atoms: _17  and  _18
REMARK    8  A    between atoms: _20  and  _22
REMARK    9  A    between atoms: _22  and  _23
REMARK   10  A    between atoms: _22  and  _25
REMARK   11  A    between atoms: _25  and  _26
REMARK   12  A    between atoms: _32  and  _34
REMARK   13  A    between atoms: _34  and  _35
REMARK   14  A    between atoms: _34  and  _37
REMARK   15  A    between atoms: _37  and  _38
REMARK   16  A    between atoms: _38  and  _39
REMARK   17  A    between atoms: _39  and  _40
REMARK   18  A    between atoms: _49  and  _51
REMARK   19  A    between atoms: _51  and  _52
REMARK   20  A    between atoms: _51  and  _54
REMARK   21  A    between atoms: _54  and  _55
REMARK   22  A    between atoms: _55  and  _56
REMARK   23  A    between atoms: _61  and  _63
REMARK   24  A    between atoms: _63  and  _64
REMARK   25  A    between atoms: _63  and  _66
REMARK   26  A    between atoms: _66  and  _67
REMARK   27  A    between atoms: _69  and  _71
REMARK   28  A    between atoms: _71  and  _72
REMARK   29  A    between atoms: _71  and  _74
REMARK   30  A    between atoms: _74  and  _75
REMARK   31  A    between atoms: _78  and  _80
REMARK   32  A    between atoms: _80  and  _81
REMARK   33  A    between atoms: _80  and  _83
REMARK   34  A    between atoms: _83  and  _84
REMARK   35  A    between atoms: _84  and  _85
REMARK   36  A    between atoms: _85  and  _86
REMARK   37  A    between atoms: _95  and  _97
REMARK   38  A    between atoms: _97  and  _98
REMARK   39  A    between atoms: _97  and  _100
REMARK   40  A    between atoms: _100  and  _101
REMARK   41  A    between atoms: _103  and  _105
REMARK   42  A    between atoms: _105  and  _106
REMARK   43  A    between atoms: _108  and  _110
REMARK   44  A    between atoms: _110  and  _111
REMARK   45  A    between atoms: _110  and  _113
REMARK   46  A    between atoms: _113  and  _114
REMARK   47  A    between atoms: _117  and  _119
REMARK   48  A    between atoms: _119  and  _120
REMARK   49  A    between atoms: _122  and  _124
REMARK   50  A    between atoms: _124  and  _125
REMARK   51  A    between atoms: _127  and  _129
REMARK   52  A    between atoms: _129  and  _130
REMARK   53  A    between atoms: _129  and  _132
REMARK   54  A    between atoms: _132  and  _133
REMARK   55  A    between atoms: _133  and  _134
REMARK   56  A    between atoms: _134  and  _135
REMARK   57  A    between atoms: _144  and  _146
REMARK   58  A    between atoms: _146  and  _147
REMARK   59  A    between atoms: _146  and  _149
REMARK   60  A    between atoms: _149  and  _150
REMARK   61  A    between atoms: _155  and  _157
REMARK   62  A    between atoms: _157  and  _158
REMARK   63  A    between atoms: _157  and  _160
REMARK   64  A    between atoms: _160  and  _161
REMARK   65  A    between atoms: _164  and  _166
REMARK   66  A    between atoms: _166  and  _167
REMARK   67  A    between atoms: _166  and  _169
REMARK   68  A    between atoms: _169  and  _170
REMARK   69  A    between atoms: _173  and  _175
REMARK   70  A    between atoms: _175  and  _176
REMARK   71  A    between atoms: _175  and  _178
REMARK   72  A    between atoms: _178  and  _179
REMARK   73  A    between atoms: _181  and  _183
REMARK   74  A    between atoms: _183  and  _184
REMARK   75  A    between atoms: _183  and  _186
REMARK   76  A    between atoms: _186  and  _187
REMARK   77  A    between atoms: _187  and  _188
REMARK   78  A    between atoms: _188  and  _189
REMARK   79  A    between atoms: _198  and  _200
REMARK   80  A    between atoms: _200  and  _201
REMARK   81  A    between atoms: _200  and  _203
REMARK   82  A    between atoms: _203  and  _204
REMARK   83  A    between atoms: _209  and  _211
REMARK   84  A    between atoms: _211  and  _212
REMARK   85  A    between atoms: _211  and  _214
REMARK   86  A    between atoms: _214  and  _215
REMARK   87  A    between atoms: _215  and  _216
REMARK   88  A    between atoms: _216  and  _217
REMARK   89  A    between atoms: _226  and  _228
REMARK   90  A    between atoms: _228  and  _229
REMARK   91  A    between atoms: _228  and  _231
REMARK   92  A    between atoms: _231  and  _232
REMARK   93  A    between atoms: _235  and  _237
REMARK   94  A    between atoms: _237  and  _238
REMARK   95  A    between atoms: _240  and  _242
REMARK   96  A    between atoms: _242  and  _243
REMARK   97  A    between atoms: _242  and  _245
REMARK   98  A    between atoms: _245  and  _246
REMARK   99  A    between atoms: _248  and  _250
REMARK  100  A    between atoms: _250  and  _251
REMARK  101  A    between atoms: _250  and  _253
REMARK  102  A    between atoms: _253  and  _254
REMARK  103  A    between atoms: _259  and  _261
REMARK  104  A    between atoms: _261  and  _262
REMARK  105  A    between atoms: _261  and  _264
REMARK  106  A    between atoms: _264  and  _265
REMARK  107  A    between atoms: _265  and  _266
REMARK  108  A    between atoms: _266  and  _267
REMARK  109  A    between atoms: _276  and  _278
REMARK  110  A    between atoms: _278  and  _279
REMARK  111  A    between atoms: _278  and  _281
REMARK  112  A    between atoms: _281  and  _282
REMARK  113  A    between atoms: _285  and  _287
REMARK  114  A    between atoms: _287  and  _288
REMARK  115  A    between atoms: _290  and  _292
REMARK  116  A    between atoms: _292  and  _293
REMARK  117  A    between atoms: _292  and  _295
REMARK  118  A    between atoms: _298  and  _300
REMARK  119  A    between atoms: _300  and  _301
REMARK  120  A    between atoms: _303  and  _305
REMARK  121  A    between atoms: _305  and  _306
REMARK  122  A    between atoms: _308  and  _310
REMARK  123  A    between atoms: _310  and  _311
REMARK  124  A    between atoms: _310  and  _313
REMARK  125  A    between atoms: _313  and  _314
REMARK  126  A    between atoms: _320  and  _322
REMARK  127  A    between atoms: _322  and  _323
REMARK  128  A    between atoms: _322  and  _325
REMARK  129  A    between atoms: _325  and  _326
REMARK  130  A    between atoms: _329  and  _331
REMARK  131  A    between atoms: _331  and  _332
REMARK  132  A    between atoms: _334  and  _336
REMARK  133  A    between atoms: _336  and  _337
REMARK  134  A    between atoms: _336  and  _339
REMARK  135  A    between atoms: _339  and  _340
REMARK  136  A    between atoms: _345  and  _347
REMARK  137  A    between atoms: _347  and  _348
REMARK  138  A    between atoms: _347  and  _350
REMARK  139  A    between atoms: _350  and  _351
REMARK  140  A    between atoms: _351  and  _352
REMARK  141  A    between atoms: _352  and  _353
REMARK  142  A    between atoms: _362  and  _364
REMARK  143  A    between atoms: _364  and  _365
REMARK  144  A    between atoms: _364  and  _367
REMARK  145  A    between atoms: _367  and  _368
REMARK  146  A    between atoms: _371  and  _373
REMARK  147  A    between atoms: _373  and  _374
REMARK  148  A    between atoms: _373  and  _376
REMARK  149  A    between atoms: _376  and  _377
REMARK  150  A    between atoms: _377  and  _378
REMARK  151  A    between atoms: _378  and  _379
REMARK  152  A    between atoms: _388  and  _390
REMARK  153  A    between atoms: _390  and  _391
REMARK  154  A    between atoms: _390  and  _393
REMARK  155  A    between atoms: _393  and  _394
REMARK  156  A    between atoms: _396  and  _398
REMARK  157  A    between atoms: _398  and  _399
REMARK  158  A    between atoms: _401  and  _403
REMARK  159  A    between atoms: _403  and  _404
REMARK  160  A    between atoms: _407  and  _409
REMARK  161  A    between atoms: _409  and  _410
REMARK  162  A    between atoms: _412  and  _414
REMARK  163  A    between atoms: _414  and  _415
REMARK  164  A    between atoms: _414  and  _417
REMARK  165  A    between atoms: _417  and  _418
REMARK  166  A    between atoms: _423  and  _424
REMARK  167  A    between atoms: _426  and  _428
REMARK  168  A    between atoms: _428  and  _429
REMARK  169  A    between atoms: _428  and  _431
REMARK  170  A    between atoms: _431  and  _432
REMARK  171  A    between atoms: _435  and  _437
REMARK  172  A    between atoms: _437  and  _438
REMARK  173  A    between atoms: _440  and  _442
REMARK  174  A    between atoms: _442  and  _443
REMARK  175  A    between atoms: _442  and  _445
REMARK  176  A    between atoms: _445  and  _446
REMARK  177  A    between atoms: _446  and  _447
REMARK  178  A    between atoms: _452  and  _454
REMARK  179  A    between atoms: _454  and  _455
REMARK  180  A    between atoms: _454  and  _457
REMARK  181  A    between atoms: _457  and  _458
REMARK  182  A    between atoms: _461  and  _463
REMARK  183  A    between atoms: _463  and  _464
REMARK  184  A    between atoms: _463  and  _466
REMARK  185  A    between atoms: _466  and  _467
REMARK  186  A    between atoms: _467  and  _468
REMARK  187  A    between atoms: _473  and  _475
REMARK  188  A    between atoms: _475  and  _476
REMARK  189  A    between atoms: _475  and  _478
REMARK  190  A    between atoms: _478  and  _479
REMARK  191  A    between atoms: _482  and  _484
REMARK  192  A    between atoms: _484  and  _485
REMARK  193  A    between atoms: _484  and  _487
REMARK  194  A    between atoms: _487  and  _488
REMARK  195  A    between atoms: _488  and  _489
REMARK  196  A    between atoms: _489  and  _490
REMARK  197  A    between atoms: _499  and  _501
REMARK  198  A    between atoms: _501  and  _502
REMARK  199  A    between atoms: _501  and  _504
REMARK  200  A    between atoms: _504  and  _505
REMARK  201  A    between atoms: _507  and  _509
REMARK  202  A    between atoms: _509  and  _510
REMARK  203  A    between atoms: _513  and  _515
REMARK  204  A    between atoms: _515  and  _516
REMARK  205  A    between atoms: _515  and  _518
REMARK  206  A    between atoms: _518  and  _519
REMARK  207  A    between atoms: _522  and  _524
REMARK  208  A    between atoms: _524  and  _525
REMARK  209  A    between atoms: _527  and  _529
REMARK  210  A    between atoms: _529  and  _530
REMARK  211  A    between atoms: _529  and  _532
REMARK  212  A    between atoms: _532  and  _533
REMARK  213  A    between atoms: _538  and  _539
REMARK  214  A    between atoms: _541  and  _543
REMARK  215  A    between atoms: _543  and  _544
REMARK  216  A    between atoms: _543  and  _546
REMARK  217  A    between atoms: _546  and  _547
REMARK  218  A    between atoms: _550  and  _552
REMARK  219  A    between atoms: _552  and  _553
REMARK  220  A    between atoms: _555  and  _557
REMARK  221  A    between atoms: _557  and  _558
REMARK  222  A    between atoms: _557  and  _560
REMARK  223  A    between atoms: _560  and  _561
REMARK  224  A    between atoms: _566  and  _568
REMARK  225  A    between atoms: _568  and  _569
REMARK  226  A    between atoms: _568  and  _571
REMARK  227  A    between atoms: _571  and  _572
REMARK  228  A    between atoms: _575  and  _577
REMARK  229  A    between atoms: _577  and  _578
REMARK  230  A    between atoms: _577  and  _580
REMARK  231  A    between atoms: _580  and  _581
REMARK  232  A    between atoms: _587  and  _589
REMARK  233  A    between atoms: _589  and  _590
REMARK  234  A    between atoms: _589  and  _592
REMARK  235  A    between atoms: _592  and  _593
REMARK  236  A    between atoms: _593  and  _594
REMARK  237  A    between atoms: _594  and  _595
REMARK  238  A    between atoms: _604  and  _606
REMARK  239  A    between atoms: _606  and  _607
REMARK  240  A    between atoms: _606  and  _609
REMARK  241  A    between atoms: _609  and  _610
REMARK  242  A    between atoms: _612  and  _614
REMARK  243  A    between atoms: _614  and  _615
REMARK  244  A    between atoms: _617  and  _619
REMARK  245  A    between atoms: _619  and  _620
REMARK  246  A    between atoms: _619  and  _622
REMARK                            x       y       z     vdW  Elec       q    Type
REMARK                         _______ _______ _______ _____ _____    ______ ____
ROOT
ATOM      1  O   HOH     1       8.211  -2.808 -17.574  0.00  0.00    +0.000 OA
ENDROOT
TORSDOF 0
REMARK  Name = ../refined-set-2016/4xmb/4xmb_pocket.pdb
REMARK  246 active torsions:
REMARK  status: ('A' for Active; 'I' for Inactive)
REMARK    1  A    between atoms: _1  and  _3
REMARK    2  A    between atoms: _3  and  _4
REMARK    3  A    between atoms: _6  and  _8
REMARK    4  A    between atoms: _8  and  _9
REMARK    5  A    between atoms: _8  and  _11
REMARK    6  A    between atoms: _11  and  _12
REMARK    7  A    between atoms: _17  and  _18
REMARK    8  A    between atoms: _20  and  _22
REMARK    9  A    between atoms: _22  and  _23
REMARK   10  A    between atoms: _22  and  _25
REMARK   11  A    between atoms: _25  and  _26
REMARK   12  A    between atoms: _32  and  _34
REMARK   13  A    between atoms: _34  and  _35
REMARK   14  A    between atoms: _34  and  _37
REMARK   15  A    between atoms: _37  and  _38
REMARK   16  A    between atoms: _38  and  _39
REMARK   17  A    between atoms: _39  and  _40
REMARK   18  A    between atoms: _49  and  _51
REMARK   19  A    between atoms: _51  and  _52
REMARK   20  A    between atoms: _51  and  _54
REMARK   21  A    between atoms: _54  and  _55
REMARK   22  A    between atoms: _55  and  _56
REMARK   23  A    between atoms: _61  and  _63
REMARK   24  A    between atoms: _63  and  _64
REMARK   25  A    between atoms: _63  and  _66
REMARK   26  A    between atoms: _66  and  _67
REMARK   27  A    between atoms: _69  and  _71
REMARK   28  A    between atoms: _71  and  _72
REMARK   29  A    between atoms: _71  and  _74
REMARK   30  A    between atoms: _74  and  _75
REMARK   31  A    between atoms: _78  and  _80
REMARK   32  A    between atoms: _80  and  _81
REMARK   33  A    between atoms: _80  and  _83
REMARK   34  A    between atoms: _83  and  _84
REMARK   35  A    between atoms: _84  and  _85
REMARK   36  A    between atoms: _85  and  _86
REMARK   37  A    between atoms: _95  and  _97
REMARK   38  A    between atoms: _97  and  _98
REMARK   39  A    between atoms: _97  and  _100
REMARK   40  A    between atoms: _100  and  _101
REMARK   41  A    between atoms: _103  and  _105
REMARK   42  A    between atoms: _105  and  _106
REMARK   43  A    between atoms: _108  and  _110
REMARK   44  A    between atoms: _110  and  _111
REMARK   45  A    between atoms: _110  and  _113
REMARK   46  A    between atoms: _113  and  _114
REMARK   47  A    between atoms: _117  and  _119
REMARK   48  A    between atoms: _119  and  _120
REMARK   49  A    between atoms: _122  and  _124
REMARK   50  A    between atoms: _124  and  _125
REMARK   51  A    between atoms: _127  and  _129
REMARK   52  A    between atoms: _129  and  _130
REMARK   53  A    between atoms: _129  and  _132
REMARK   54  A    between atoms: _132  and  _133
REMARK   55  A    between atoms: _133  and  _134
REMARK   56  A    between atoms: _134  and  _135
REMARK   57  A    between atoms: _144  and  _146
REMARK   58  A    between atoms: _146  and  _147
REMARK   59  A    between atoms: _146  and  _149
REMARK   60  A    between atoms: _149  and  _150
REMARK   61  A    between atoms: _155  and  _157
REMARK   62  A    between atoms: _157  and  _158
REMARK   63  A    between atoms: _157  and  _160
REMARK   64  A    between atoms: _160  and  _161
REMARK   65  A    between atoms: _164  and  _166
REMARK   66  A    between atoms: _166  and  _167
REMARK   67  A    between atoms: _166  and  _169
REMARK   68  A    between atoms: _169  and  _170
REMARK   69  A    between atoms: _173  and  _175
REMARK   70  A    between atoms: _175  and  _176
REMARK   71  A    between atoms: _175  and  _178
REMARK   72  A    between atoms: _178  and  _179
REMARK   73  A    between atoms: _181  and  _183
REMARK   74  A    between atoms: _183  and  _184
REMARK   75  A    between atoms: _183  and  _186
REMARK   76  A    between atoms: _186  and  _187
REMARK   77  A    between atoms: _187  and  _188
REMARK   78  A    between atoms: _188  and  _189
REMARK   79  A    between atoms: _198  and  _200
REMARK   80  A    between atoms: _200  and  _201
REMARK   81  A    between atoms: _200  and  _203
REMARK   82  A    between atoms: _203  and  _204
REMARK   83  A    between atoms: _209  and  _211
REMARK   84  A    between atoms: _211  and  _212
REMARK   85  A    between atoms: _211  and  _214
REMARK   86  A    between atoms: _214  and  _215
REMARK   87  A    between atoms: _215  and  _216
REMARK   88  A    between atoms: _216  and  _217
REMARK   89  A    between atoms: _226  and  _228
REMARK   90  A    between atoms: _228  and  _229
REMARK   91  A    between atoms: _228  and  _231
REMARK   92  A    between atoms: _231  and  _232
REMARK   93  A    between atoms: _235  and  _237
REMARK   94  A    between atoms: _237  and  _238
REMARK   95  A    between atoms: _240  and  _242
REMARK   96  A    between atoms: _242  and  _243
REMARK   97  A    between atoms: _242  and  _245
REMARK   98  A    between atoms: _245  and  _246
REMARK   99  A    between atoms: _248  and  _250
REMARK  100  A    between atoms: _250  and  _251
REMARK  101  A    between atoms: _250  and  _253
REMARK  102  A    between atoms: _253  and  _254
REMARK  103  A    between atoms: _259  and  _261
REMARK  104  A    between atoms: _261  and  _262
REMARK  105  A    between atoms: _261  and  _264
REMARK  106  A    between atoms: _264  and  _265
REMARK  107  A    between atoms: _265  and  _266
REMARK  108  A    between atoms: _266  and  _267
REMARK  109  A    between atoms: _276  and  _278
REMARK  110  A    between atoms: _278  and  _279
REMARK  111  A    between atoms: _278  and  _281
REMARK  112  A    between atoms: _281  and  _282
REMARK  113  A    between atoms: _285  and  _287
REMARK  114  A    between atoms: _287  and  _288
REMARK  115  A    between atoms: _290  and  _292
REMARK  116  A    between atoms: _292  and  _293
REMARK  117  A    between atoms: _292  and  _295
REMARK  118  A    between atoms: _298  and  _300
REMARK  119  A    between atoms: _300  and  _301
REMARK  120  A    between atoms: _303  and  _305
REMARK  121  A    between atoms: _305  and  _306
REMARK  122  A    between atoms: _308  and  _310
REMARK  123  A    between atoms: _310  and  _311
REMARK  124  A    between atoms: _310  and  _313
REMARK  125  A    between atoms: _313  and  _314
REMARK  126  A    between atoms: _320  and  _322
REMARK  127  A    between atoms: _322  and  _323
REMARK  128  A    between atoms: _322  and  _325
REMARK  129  A    between atoms: _325  and  _326
REMARK  130  A    between atoms: _329  and  _331
REMARK  131  A    between atoms: _331  and  _332
REMARK  132  A    between atoms: _334  and  _336
REMARK  133  A    between atoms: _336  and  _337
REMARK  134  A    between atoms: _336  and  _339
REMARK  135  A    between atoms: _339  and  _340
REMARK  136  A    between atoms: _345  and  _347
REMARK  137  A    between atoms: _347  and  _348
REMARK  138  A    between atoms: _347  and  _350
REMARK  139  A    between atoms: _350  and  _351
REMARK  140  A    between atoms: _351  and  _352
REMARK  141  A    between atoms: _352  and  _353
REMARK  142  A    between atoms: _362  and  _364
REMARK  143  A    between atoms: _364  and  _365
REMARK  144  A    between atoms: _364  and  _367
REMARK  145  A    between atoms: _367  and  _368
REMARK  146  A    between atoms: _371  and  _373
REMARK  147  A    between atoms: _373  and  _374
REMARK  148  A    between atoms: _373  and  _376
REMARK  149  A    between atoms: _376  and  _377
REMARK  150  A    between atoms: _377  and  _378
REMARK  151  A    between atoms: _378  and  _379
REMARK  152  A    between atoms: _388  and  _390
REMARK  153  A    between atoms: _390  and  _391
REMARK  154  A    between atoms: _390  and  _393
REMARK  155  A    between atoms: _393  and  _394
REMARK  156  A    between atoms: _396  and  _398
REMARK  157  A    between atoms: _398  and  _399
REMARK  158  A    between atoms: _401  and  _403
REMARK  159  A    between atoms: _403  and  _404
REMARK  160  A    between atoms: _407  and  _409
REMARK  161  A    between atoms: _409  and  _410
REMARK  162  A    between atoms: _412  and  _414
REMARK  163  A    between atoms: _414  and  _415
REMARK  164  A    between atoms: _414  and  _417
REMARK  165  A    between atoms: _417  and  _418
REMARK  166  A    between atoms: _423  and  _424
REMARK  167  A    between atoms: _426  and  _428
REMARK  168  A    between atoms: _428  and  _429
REMARK  169  A    between atoms: _428  and  _431
REMARK  170  A    between atoms: _431  and  _432
REMARK  171  A    between atoms: _435  and  _437
REMARK  172  A    between atoms: _437  and  _438
REMARK  173  A    between atoms: _440  and  _442
REMARK  174  A    between atoms: _442  and  _443
REMARK  175  A    between atoms: _442  and  _445
REMARK  176  A    between atoms: _445  and  _446
REMARK  177  A    between atoms: _446  and  _447
REMARK  178  A    between atoms: _452  and  _454
REMARK  179  A    between atoms: _454  and  _455
REMARK  180  A    between atoms: _454  and  _457
REMARK  181  A    between atoms: _457  and  _458
REMARK  182  A    between atoms: _461  and  _463
REMARK  183  A    between atoms: _463  and  _464
REMARK  184  A    between atoms: _463  and  _466
REMARK  185  A    between atoms: _466  and  _467
REMARK  186  A    between atoms: _467  and  _468
REMARK  187  A    between atoms: _473  and  _475
REMARK  188  A    between atoms: _475  and  _476
REMARK  189  A    between atoms: _475  and  _478
REMARK  190  A    between atoms: _478  and  _479
REMARK  191  A    between atoms: _482  and  _484
REMARK  192  A    between atoms: _484  and  _485
REMARK  193  A    between atoms: _484  and  _487
REMARK  194  A    between atoms: _487  and  _488
REMARK  195  A    between atoms: _488  and  _489
REMARK  196  A    between atoms: _489  and  _490
REMARK  197  A    between atoms: _499  and  _501
REMARK  198  A    between atoms: _501  and  _502
REMARK  199  A    between atoms: _501  and  _504
REMARK  200  A    between atoms: _504  and  _505
REMARK  201  A    between atoms: _507  and  _509
REMARK  202  A    between atoms: _509  and  _510
REMARK  203  A    between atoms: _513  and  _515
REMARK  204  A    between atoms: _515  and  _516
REMARK  205  A    between atoms: _515  and  _518
REMARK  206  A    between atoms: _518  and  _519
REMARK  207  A    between atoms: _522  and  _524
REMARK  208  A    between atoms: _524  and  _525
REMARK  209  A    between atoms: _527  and  _529
REMARK  210  A    between atoms: _529  and  _530
REMARK  211  A    between atoms: _529  and  _532
REMARK  212  A    between atoms: _532  and  _533
REMARK  213  A    between atoms: _538  and  _539
REMARK  214  A    between atoms: _541  and  _543
REMARK  215  A    between atoms: _543  and  _544
REMARK  216  A    between atoms: _543  and  _546
REMARK  217  A    between atoms: _546  and  _547
REMARK  218  A    between atoms: _550  and  _552
REMARK  219  A    between atoms: _552  and  _553
REMARK  220  A    between atoms: _555  and  _557
REMARK  221  A    between atoms: _557  and  _558
REMARK  222  A    between atoms: _557  and  _560
REMARK  223  A    between atoms: _560  and  _561
REMARK  224  A    between atoms: _566  and  _568
REMARK  225  A    between atoms: _568  and  _569
REMARK  226  A    between atoms: _568  and  _571
REMARK  227  A    between atoms: _571  and  _572
REMARK  228  A    between atoms: _575  and  _577
REMARK  229  A    between atoms: _577  and  _578
REMARK  230  A    between atoms: _577  and  _580
REMARK  231  A    between atoms: _580  and  _581
REMARK  232  A    between atoms: _587  and  _589
REMARK  233  A    between atoms: _589  and  _590
REMARK  234  A    between atoms: _589  and  _592
REMARK  235  A    between atoms: _592  and  _593
REMARK  236  A    between atoms: _593  and  _594
REMARK  237  A    between atoms: _594  and  _595
REMARK  238  A    between atoms: _604  and  _606
REMARK  239  A    between atoms: _606  and  _607
REMARK  240  A    between atoms: _606  and  _609
REMARK  241  A    between atoms: _609  and  _610
REMARK  242  A    between atoms: _612  and  _614
REMARK  243  A    between atoms: _614  and  _615
REMARK  244  A    between atoms: _617  and  _619
REMARK  245  A    between atoms: _619  and  _620
REMARK  246  A    between atoms: _619  and  _622
REMARK                            x       y       z     vdW  Elec       q    Type
REMARK                         _______ _______ _______ _____ _____    ______ ____
ROOT
ATOM      1  O   HOH     1       8.551   1.171 -21.810  0.00  0.00    +0.000 OA
ENDROOT
TORSDOF 0
REMARK  Name = ../refined-set-2016/4xmb/4xmb_pocket.pdb
REMARK  246 active torsions:
REMARK  status: ('A' for Active; 'I' for Inactive)
REMARK    1  A    between atoms: _1  and  _3
REMARK    2  A    between atoms: _3  and  _4
REMARK    3  A    between atoms: _6  and  _8
REMARK    4  A    between atoms: _8  and  _9
REMARK    5  A    between atoms: _8  and  _11
REMARK    6  A    between atoms: _11  and  _12
REMARK    7  A    between atoms: _17  and  _18
REMARK    8  A    between atoms: _20  and  _22
REMARK    9  A    between atoms: _22  and  _23
REMARK   10  A    between atoms: _22  and  _25
REMARK   11  A    between atoms: _25  and  _26
REMARK   12  A    between atoms: _32  and  _34
REMARK   13  A    between atoms: _34  and  _35
REMARK   14  A    between atoms: _34  and  _37
REMARK   15  A    between atoms: _37  and  _38
REMARK   16  A    between atoms: _38  and  _39
REMARK   17  A    between atoms: _39  and  _40
REMARK   18  A    between atoms: _49  and  _51
REMARK   19  A    between atoms: _51  and  _52
REMARK   20  A    between atoms: _51  and  _54
REMARK   21  A    between atoms: _54  and  _55
REMARK   22  A    between atoms: _55  and  _56
REMARK   23  A    between atoms: _61  and  _63
REMARK   24  A    between atoms: _63  and  _64
REMARK   25  A    between atoms: _63  and  _66
REMARK   26  A    between atoms: _66  and  _67
REMARK   27  A    between atoms: _69  and  _71
REMARK   28  A    between atoms: _71  and  _72
REMARK   29  A    between atoms: _71  and  _74
REMARK   30  A    between atoms: _74  and  _75
REMARK   31  A    between atoms: _78  and  _80
REMARK   32  A    between atoms: _80  and  _81
REMARK   33  A    between atoms: _80  and  _83
REMARK   34  A    between atoms: _83  and  _84
REMARK   35  A    between atoms: _84  and  _85
REMARK   36  A    between atoms: _85  and  _86
REMARK   37  A    between atoms: _95  and  _97
REMARK   38  A    between atoms: _97  and  _98
REMARK   39  A    between atoms: _97  and  _100
REMARK   40  A    between atoms: _100  and  _101
REMARK   41  A    between atoms: _103  and  _105
REMARK   42  A    between atoms: _105  and  _106
REMARK   43  A    between atoms: _108  and  _110
REMARK   44  A    between atoms: _110  and  _111
REMARK   45  A    between atoms: _110  and  _113
REMARK   46  A    between atoms: _113  and  _114
REMARK   47  A    between atoms: _117  and  _119
REMARK   48  A    between atoms: _119  and  _120
REMARK   49  A    between atoms: _122  and  _124
REMARK   50  A    between atoms: _124  and  _125
REMARK   51  A    between atoms: _127  and  _129
REMARK   52  A    between atoms: _129  and  _130
REMARK   53  A    between atoms: _129  and  _132
REMARK   54  A    between atoms: _132  and  _133
REMARK   55  A    between atoms: _133  and  _134
REMARK   56  A    between atoms: _134  and  _135
REMARK   57  A    between atoms: _144  and  _146
REMARK   58  A    between atoms: _146  and  _147
REMARK   59  A    between atoms: _146  and  _149
REMARK   60  A    between atoms: _149  and  _150
REMARK   61  A    between atoms: _155  and  _157
REMARK   62  A    between atoms: _157  and  _158
REMARK   63  A    between atoms: _157  and  _160
REMARK   64  A    between atoms: _160  and  _161
REMARK   65  A    between atoms: _164  and  _166
REMARK   66  A    between atoms: _166  and  _167
REMARK   67  A    between atoms: _166  and  _169
REMARK   68  A    between atoms: _169  and  _170
REMARK   69  A    between atoms: _173  and  _175
REMARK   70  A    between atoms: _175  and  _176
REMARK   71  A    between atoms: _175  and  _178
REMARK   72  A    between atoms: _178  and  _179
REMARK   73  A    between atoms: _181  and  _183
REMARK   74  A    between atoms: _183  and  _184
REMARK   75  A    between atoms: _183  and  _186
REMARK   76  A    between atoms: _186  and  _187
REMARK   77  A    between atoms: _187  and  _188
REMARK   78  A    between atoms: _188  and  _189
REMARK   79  A    between atoms: _198  and  _200
REMARK   80  A    between atoms: _200  and  _201
REMARK   81  A    between atoms: _200  and  _203
REMARK   82  A    between atoms: _203  and  _204
REMARK   83  A    between atoms: _209  and  _211
REMARK   84  A    between atoms: _211  and  _212
REMARK   85  A    between atoms: _211  and  _214
REMARK   86  A    between atoms: _214  and  _215
REMARK   87  A    between atoms: _215  and  _216
REMARK   88  A    between atoms: _216  and  _217
REMARK   89  A    between atoms: _226  and  _228
REMARK   90  A    between atoms: _228  and  _229
REMARK   91  A    between atoms: _228  and  _231
REMARK   92  A    between atoms: _231  and  _232
REMARK   93  A    between atoms: _235  and  _237
REMARK   94  A    between atoms: _237  and  _238
REMARK   95  A    between atoms: _240  and  _242
REMARK   96  A    between atoms: _242  and  _243
REMARK   97  A    between atoms: _242  and  _245
REMARK   98  A    between atoms: _245  and  _246
REMARK   99  A    between atoms: _248  and  _250
REMARK  100  A    between atoms: _250  and  _251
REMARK  101  A    between atoms: _250  and  _253
REMARK  102  A    between atoms: _253  and  _254
REMARK  103  A    between atoms: _259  and  _261
REMARK  104  A    between atoms: _261  and  _262
REMARK  105  A    between atoms: _261  and  _264
REMARK  106  A    between atoms: _264  and  _265
REMARK  107  A    between atoms: _265  and  _266
REMARK  108  A    between atoms: _266  and  _267
REMARK  109  A    between atoms: _276  and  _278
REMARK  110  A    between atoms: _278  and  _279
REMARK  111  A    between atoms: _278  and  _281
REMARK  112  A    between atoms: _281  and  _282
REMARK  113  A    between atoms: _285  and  _287
REMARK  114  A    between atoms: _287  and  _288
REMARK  115  A    between atoms: _290  and  _292
REMARK  116  A    between atoms: _292  and  _293
REMARK  117  A    between atoms: _292  and  _295
REMARK  118  A    between atoms: _298  and  _300
REMARK  119  A    between atoms: _300  and  _301
REMARK  120  A    between atoms: _303  and  _305
REMARK  121  A    between atoms: _305  and  _306
REMARK  122  A    between atoms: _308  and  _310
REMARK  123  A    between atoms: _310  and  _311
REMARK  124  A    between atoms: _310  and  _313
REMARK  125  A    between atoms: _313  and  _314
REMARK  126  A    between atoms: _320  and  _322
REMARK  127  A    between atoms: _322  and  _323
REMARK  128  A    between atoms: _322  and  _325
REMARK  129  A    between atoms: _325  and  _326
REMARK  130  A    between atoms: _329  and  _331
REMARK  131  A    between atoms: _331  and  _332
REMARK  132  A    between atoms: _334  and  _336
REMARK  133  A    between atoms: _336  and  _337
REMARK  134  A    between atoms: _336  and  _339
REMARK  135  A    between atoms: _339  and  _340
REMARK  136  A    between atoms: _345  and  _347
REMARK  137  A    between atoms: _347  and  _348
REMARK  138  A    between atoms: _347  and  _350
REMARK  139  A    between atoms: _350  and  _351
REMARK  140  A    between atoms: _351  and  _352
REMARK  141  A    between atoms: _352  and  _353
REMARK  142  A    between atoms: _362  and  _364
REMARK  143  A    between atoms: _364  and  _365
REMARK  144  A    between atoms: _364  and  _367
REMARK  145  A    between atoms: _367  and  _368
REMARK  146  A    between atoms: _371  and  _373
REMARK  147  A    between atoms: _373  and  _374
REMARK  148  A    between atoms: _373  and  _376
REMARK  149  A    between atoms: _376  and  _377
REMARK  150  A    between atoms: _377  and  _378
REMARK  151  A    between atoms: _378  and  _379
REMARK  152  A    between atoms: _388  and  _390
REMARK  153  A    between atoms: _390  and  _391
REMARK  154  A    between atoms: _390  and  _393
REMARK  155  A    between atoms: _393  and  _394
REMARK  156  A    between atoms: _396  and  _398
REMARK  157  A    between atoms: _398  and  _399
REMARK  158  A    between atoms: _401  and  _403
REMARK  159  A    between atoms: _403  and  _404
REMARK  160  A    between atoms: _407  and  _409
REMARK  161  A    between atoms: _409  and  _410
REMARK  162  A    between atoms: _412  and  _414
REMARK  163  A    between atoms: _414  and  _415
REMARK  164  A    between atoms: _414  and  _417
REMARK  165  A    between atoms: _417  and  _418
REMARK  166  A    between atoms: _423  and  _424
REMARK  167  A    between atoms: _426  and  _428
REMARK  168  A    between atoms: _428  and  _429
REMARK  169  A    between atoms: _428  and  _431
REMARK  170  A    between atoms: _431  and  _432
REMARK  171  A    between atoms: _435  and  _437
REMARK  172  A    between atoms: _437  and  _438
REMARK  173  A    between atoms: _440  and  _442
REMARK  174  A    between atoms: _442  and  _443
REMARK  175  A    between atoms: _442  and  _445
REMARK  176  A    between atoms: _445  and  _446
REMARK  177  A    between atoms: _446  and  _447
REMARK  178  A    between atoms: _452  and  _454
REMARK  179  A    between atoms: _454  and  _455
REMARK  180  A    between atoms: _454  and  _457
REMARK  181  A    between atoms: _457  and  _458
REMARK  182  A    between atoms: _461  and  _463
REMARK  183  A    between atoms: _463  and  _464
REMARK  184  A    between atoms: _463  and  _466
REMARK  185  A    between atoms: _466  and  _467
REMARK  186  A    between atoms: _467  and  _468
REMARK  187  A    between atoms: _473  and  _475
REMARK  188  A    between atoms: _475  and  _476
REMARK  189  A    between atoms: _475  and  _478
REMARK  190  A    between atoms: _478  and  _479
REMARK  191  A    between atoms: _482  and  _484
REMARK  192  A    between atoms: _484  and  _485
REMARK  193  A    between atoms: _484  and  _487
REMARK  194  A    between atoms: _487  and  _488
REMARK  195  A    between atoms: _488  and  _489
REMARK  196  A    between atoms: _489  and  _490
REMARK  197  A    between atoms: _499  and  _501
REMARK  198  A    between atoms: _501  and  _502
REMARK  199  A    between atoms: _501  and  _504
REMARK  200  A    between atoms: _504  and  _505
REMARK  201  A    between atoms: _507  and  _509
REMARK  202  A    between atoms: _509  and  _510
REMARK  203  A    between atoms: _513  and  _515
REMARK  204  A    between atoms: _515  and  _516
REMARK  205  A    between atoms: _515  and  _518
REMARK  206  A    between atoms: _518  and  _519
REMARK  207  A    between atoms: _522  and  _524
REMARK  208  A    between atoms: _524  and  _525
REMARK  209  A    between atoms: _527  and  _529
REMARK  210  A    between atoms: _529  and  _530
REMARK  211  A    between atoms: _529  and  _532
REMARK  212  A    between atoms: _532  and  _533
REMARK  213  A    between atoms: _538  and  _539
REMARK  214  A    between atoms: _541  and  _543
REMARK  215  A    between atoms: _543  and  _544
REMARK  216  A    between atoms: _543  and  _546
REMARK  217  A    between atoms: _546  and  _547
REMARK  218  A    between atoms: _550  and  _552
REMARK  219  A    between atoms: _552  and  _553
REMARK  220  A    between atoms: _555  and  _557
REMARK  221  A    between atoms: _557  and  _558
REMARK  222  A    between atoms: _557  and  _560
REMARK  223  A    between atoms: _560  and  _561
REMARK  224  A    between atoms: _566  and  _568
REMARK  225  A    between atoms: _568  and  _569
REMARK  226  A    between atoms: _568  and  _571
REMARK  227  A    between atoms: _571  and  _572
REMARK  228  A    between atoms: _575  and  _577
REMARK  229  A    between atoms: _577  and  _578
REMARK  230  A    between atoms: _577  and  _580
REMARK  231  A    between atoms: _580  and  _581
REMARK  232  A    between atoms: _587  and  _589
REMARK  233  A    between atoms: _589  and  _590
REMARK  234  A    between atoms: _589  and  _592
REMARK  235  A    between atoms: _592  and  _593
REMARK  236  A    between atoms: _593  and  _594
REMARK  237  A    between atoms: _594  and  _595
REMARK  238  A    between atoms: _604  and  _606
REMARK  239  A    between atoms: _606  and  _607
REMARK  240  A    between atoms: _606  and  _609
REMARK  241  A    between atoms: _609  and  _610
REMARK  242  A    between atoms: _612  and  _614
REMARK  243  A    between atoms: _614  and  _615
REMARK  244  A    between atoms: _617  and  _619
REMARK  245  A    between atoms: _619  and  _620
REMARK  246  A    between atoms: _619  and  _622
REMARK                            x       y       z     vdW  Elec       q    Type
REMARK                         _______ _______ _______ _____ _____    ______ ____
ROOT
ATOM      1  O   HOH     1       4.656  -5.873 -21.734  0.00  0.00    +0.000 OA
ENDROOT
TORSDOF 0
REMARK  Name = ../refined-set-2016/4xmb/4xmb_pocket.pdb
REMARK  246 active torsions:
REMARK  status: ('A' for Active; 'I' for Inactive)
REMARK    1  A    between atoms: _1  and  _3
REMARK    2  A    between atoms: _3  and  _4
REMARK    3  A    between atoms: _6  and  _8
REMARK    4  A    between atoms: _8  and  _9
REMARK    5  A    between atoms: _8  and  _11
REMARK    6  A    between atoms: _11  and  _12
REMARK    7  A    between atoms: _17  and  _18
REMARK    8  A    between atoms: _20  and  _22
REMARK    9  A    between atoms: _22  and  _23
REMARK   10  A    between atoms: _22  and  _25
REMARK   11  A    between atoms: _25  and  _26
REMARK   12  A    between atoms: _32  and  _34
REMARK   13  A    between atoms: _34  and  _35
REMARK   14  A    between atoms: _34  and  _37
REMARK   15  A    between atoms: _37  and  _38
REMARK   16  A    between atoms: _38  and  _39
REMARK   17  A    between atoms: _39  and  _40
REMARK   18  A    between atoms: _49  and  _51
REMARK   19  A    between atoms: _51  and  _52
REMARK   20  A    between atoms: _51  and  _54
REMARK   21  A    between atoms: _54  and  _55
REMARK   22  A    between atoms: _55  and  _56
REMARK   23  A    between atoms: _61  and  _63
REMARK   24  A    between atoms: _63  and  _64
REMARK   25  A    between atoms: _63  and  _66
REMARK   26  A    between atoms: _66  and  _67
REMARK   27  A    between atoms: _69  and  _71
REMARK   28  A    between atoms: _71  and  _72
REMARK   29  A    between atoms: _71  and  _74
REMARK   30  A    between atoms: _74  and  _75
REMARK   31  A    between atoms: _78  and  _80
REMARK   32  A    between atoms: _80  and  _81
REMARK   33  A    between atoms: _80  and  _83
REMARK   34  A    between atoms: _83  and  _84
REMARK   35  A    between atoms: _84  and  _85
REMARK   36  A    between atoms: _85  and  _86
REMARK   37  A    between atoms: _95  and  _97
REMARK   38  A    between atoms: _97  and  _98
REMARK   39  A    between atoms: _97  and  _100
REMARK   40  A    between atoms: _100  and  _101
REMARK   41  A    between atoms: _103  and  _105
REMARK   42  A    between atoms: _105  and  _106
REMARK   43  A    between atoms: _108  and  _110
REMARK   44  A    between atoms: _110  and  _111
REMARK   45  A    between atoms: _110  and  _113
REMARK   46  A    between atoms: _113  and  _114
REMARK   47  A    between atoms: _117  and  _119
REMARK   48  A    between atoms: _119  and  _120
REMARK   49  A    between atoms: _122  and  _124
REMARK   50  A    between atoms: _124  and  _125
REMARK   51  A    between atoms: _127  and  _129
REMARK   52  A    between atoms: _129  and  _130
REMARK   53  A    between atoms: _129  and  _132
REMARK   54  A    between atoms: _132  and  _133
REMARK   55  A    between atoms: _133  and  _134
REMARK   56  A    between atoms: _134  and  _135
REMARK   57  A    between atoms: _144  and  _146
REMARK   58  A    between atoms: _146  and  _147
REMARK   59  A    between atoms: _146  and  _149
REMARK   60  A    between atoms: _149  and  _150
REMARK   61  A    between atoms: _155  and  _157
REMARK   62  A    between atoms: _157  and  _158
REMARK   63  A    between atoms: _157  and  _160
REMARK   64  A    between atoms: _160  and  _161
REMARK   65  A    between atoms: _164  and  _166
REMARK   66  A    between atoms: _166  and  _167
REMARK   67  A    between atoms: _166  and  _169
REMARK   68  A    between atoms: _169  and  _170
REMARK   69  A    between atoms: _173  and  _175
REMARK   70  A    between atoms: _175  and  _176
REMARK   71  A    between atoms: _175  and  _178
REMARK   72  A    between atoms: _178  and  _179
REMARK   73  A    between atoms: _181  and  _183
REMARK   74  A    between atoms: _183  and  _184
REMARK   75  A    between atoms: _183  and  _186
REMARK   76  A    between atoms: _186  and  _187
REMARK   77  A    between atoms: _187  and  _188
REMARK   78  A    between atoms: _188  and  _189
REMARK   79  A    between atoms: _198  and  _200
REMARK   80  A    between atoms: _200  and  _201
REMARK   81  A    between atoms: _200  and  _203
REMARK   82  A    between atoms: _203  and  _204
REMARK   83  A    between atoms: _209  and  _211
REMARK   84  A    between atoms: _211  and  _212
REMARK   85  A    between atoms: _211  and  _214
REMARK   86  A    between atoms: _214  and  _215
REMARK   87  A    between atoms: _215  and  _216
REMARK   88  A    between atoms: _216  and  _217
REMARK   89  A    between atoms: _226  and  _228
REMARK   90  A    between atoms: _228  and  _229
REMARK   91  A    between atoms: _228  and  _231
REMARK   92  A    between atoms: _231  and  _232
REMARK   93  A    between atoms: _235  and  _237
REMARK   94  A    between atoms: _237  and  _238
REMARK   95  A    between atoms: _240  and  _242
REMARK   96  A    between atoms: _242  and  _243
REMARK   97  A    between atoms: _242  and  _245
REMARK   98  A    between atoms: _245  and  _246
REMARK   99  A    between atoms: _248  and  _250
REMARK  100  A    between atoms: _250  and  _251
REMARK  101  A    between atoms: _250  and  _253
REMARK  102  A    between atoms: _253  and  _254
REMARK  103  A    between atoms: _259  and  _261
REMARK  104  A    between atoms: _261  and  _262
REMARK  105  A    between atoms: _261  and  _264
REMARK  106  A    between atoms: _264  and  _265
REMARK  107  A    between atoms: _265  and  _266
REMARK  108  A    between atoms: _266  and  _267
REMARK  109  A    between atoms: _276  and  _278
REMARK  110  A    between atoms: _278  and  _279
REMARK  111  A    between atoms: _278  and  _281
REMARK  112  A    between atoms: _281  and  _282
REMARK  113  A    between atoms: _285  and  _287
REMARK  114  A    between atoms: _287  and  _288
REMARK  115  A    between atoms: _290  and  _292
REMARK  116  A    between atoms: _292  and  _293
REMARK  117  A    between atoms: _292  and  _295
REMARK  118  A    between atoms: _298  and  _300
REMARK  119  A    between atoms: _300  and  _301
REMARK  120  A    between atoms: _303  and  _305
REMARK  121  A    between atoms: _305  and  _306
REMARK  122  A    between atoms: _308  and  _310
REMARK  123  A    between atoms: _310  and  _311
REMARK  124  A    between atoms: _310  and  _313
REMARK  125  A    between atoms: _313  and  _314
REMARK  126  A    between atoms: _320  and  _322
REMARK  127  A    between atoms: _322  and  _323
REMARK  128  A    between atoms: _322  and  _325
REMARK  129  A    between atoms: _325  and  _326
REMARK  130  A    between atoms: _329  and  _331
REMARK  131  A    between atoms: _331  and  _332
REMARK  132  A    between atoms: _334  and  _336
REMARK  133  A    between atoms: _336  and  _337
REMARK  134  A    between atoms: _336  and  _339
REMARK  135  A    between atoms: _339  and  _340
REMARK  136  A    between atoms: _345  and  _347
REMARK  137  A    between atoms: _347  and  _348
REMARK  138  A    between atoms: _347  and  _350
REMARK  139  A    between atoms: _350  and  _351
REMARK  140  A    between atoms: _351  and  _352
REMARK  141  A    between atoms: _352  and  _353
REMARK  142  A    between atoms: _362  and  _364
REMARK  143  A    between atoms: _364  and  _365
REMARK  144  A    between atoms: _364  and  _367
REMARK  145  A    between atoms: _367  and  _368
REMARK  146  A    between atoms: _371  and  _373
REMARK  147  A    between atoms: _373  and  _374
REMARK  148  A    between atoms: _373  and  _376
REMARK  149  A    between atoms: _376  and  _377
REMARK  150  A    between atoms: _377  and  _378
REMARK  151  A    between atoms: _378  and  _379
REMARK  152  A    between atoms: _388  and  _390
REMARK  153  A    between atoms: _390  and  _391
REMARK  154  A    between atoms: _390  and  _393
REMARK  155  A    between atoms: _393  and  _394
REMARK  156  A    between atoms: _396  and  _398
REMARK  157  A    between atoms: _398  and  _399
REMARK  158  A    between atoms: _401  and  _403
REMARK  159  A    between atoms: _403  and  _404
REMARK  160  A    between atoms: _407  and  _409
REMARK  161  A    between atoms: _409  and  _410
REMARK  162  A    between atoms: _412  and  _414
REMARK  163  A    between atoms: _414  and  _415
REMARK  164  A    between atoms: _414  and  _417
REMARK  165  A    between atoms: _417  and  _418
REMARK  166  A    between atoms: _423  and  _424
REMARK  167  A    between atoms: _426  and  _428
REMARK  168  A    between atoms: _428  and  _429
REMARK  169  A    between atoms: _428  and  _431
REMARK  170  A    between atoms: _431  and  _432
REMARK  171  A    between atoms: _435  and  _437
REMARK  172  A    between atoms: _437  and  _438
REMARK  173  A    between atoms: _440  and  _442
REMARK  174  A    between atoms: _442  and  _443
REMARK  175  A    between atoms: _442  and  _445
REMARK  176  A    between atoms: _445  and  _446
REMARK  177  A    between atoms: _446  and  _447
REMARK  178  A    between atoms: _452  and  _454
REMARK  179  A    between atoms: _454  and  _455
REMARK  180  A    between atoms: _454  and  _457
REMARK  181  A    between atoms: _457  and  _458
REMARK  182  A    between atoms: _461  and  _463
REMARK  183  A    between atoms: _463  and  _464
REMARK  184  A    between atoms: _463  and  _466
REMARK  185  A    between atoms: _466  and  _467
REMARK  186  A    between atoms: _467  and  _468
REMARK  187  A    between atoms: _473  and  _475
REMARK  188  A    between atoms: _475  and  _476
REMARK  189  A    between atoms: _475  and  _478
REMARK  190  A    between atoms: _478  and  _479
REMARK  191  A    between atoms: _482  and  _484
REMARK  192  A    between atoms: _484  and  _485
REMARK  193  A    between atoms: _484  and  _487
REMARK  194  A    between atoms: _487  and  _488
REMARK  195  A    between atoms: _488  and  _489
REMARK  196  A    between atoms: _489  and  _490
REMARK  197  A    between atoms: _499  and  _501
REMARK  198  A    between atoms: _501  and  _502
REMARK  199  A    between atoms: _501  and  _504
REMARK  200  A    between atoms: _504  and  _505
REMARK  201  A    between atoms: _507  and  _509
REMARK  202  A    between atoms: _509  and  _510
REMARK  203  A    between atoms: _513  and  _515
REMARK  204  A    between atoms: _515  and  _516
REMARK  205  A    between atoms: _515  and  _518
REMARK  206  A    between atoms: _518  and  _519
REMARK  207  A    between atoms: _522  and  _524
REMARK  208  A    between atoms: _524  and  _525
REMARK  209  A    between atoms: _527  and  _529
REMARK  210  A    between atoms: _529  and  _530
REMARK  211  A    between atoms: _529  and  _532
REMARK  212  A    between atoms: _532  and  _533
REMARK  213  A    between atoms: _538  and  _539
REMARK  214  A    between atoms: _541  and  _543
REMARK  215  A    between atoms: _543  and  _544
REMARK  216  A    between atoms: _543  and  _546
REMARK  217  A    between atoms: _546  and  _547
REMARK  218  A    between atoms: _550  and  _552
REMARK  219  A    between atoms: _552  and  _553
REMARK  220  A    between atoms: _555  and  _557
REMARK  221  A    between atoms: _557  and  _558
REMARK  222  A    between atoms: _557  and  _560
REMARK  223  A    between atoms: _560  and  _561
REMARK  224  A    between atoms: _566  and  _568
REMARK  225  A    between atoms: _568  and  _569
REMARK  226  A    between atoms: _568  and  _571
REMARK  227  A    between atoms: _571  and  _572
REMARK  228  A    between atoms: _575  and  _577
REMARK  229  A    between atoms: _577  and  _578
REMARK  230  A    between atoms: _577  and  _580
REMARK  231  A    between atoms: _580  and  _581
REMARK  232  A    between atoms: _587  and  _589
REMARK  233  A    between atoms: _589  and  _590
REMARK  234  A    between atoms: _589  and  _592
REMARK  235  A    between atoms: _592  and  _593
REMARK  236  A    between atoms: _593  and  _594
REMARK  237  A    between atoms: _594  and  _595
REMARK  238  A    between atoms: _604  and  _606
REMARK  239  A    between atoms: _606  and  _607
REMARK  240  A    between atoms: _606  and  _609
REMARK  241  A    between atoms: _609  and  _610
REMARK  242  A    between atoms: _612  and  _614
REMARK  243  A    between atoms: _614  and  _615
REMARK  244  A    between atoms: _617  and  _619
REMARK  245  A    between atoms: _619  and  _620
REMARK  246  A    between atoms: _619  and  _622
REMARK                            x       y       z     vdW  Elec       q    Type
REMARK                         _______ _______ _______ _____ _____    ______ ____
ROOT
ATOM      1  O   HOH     1      -4.495   3.081 -15.701  0.00  0.00    +0.000 OA
ENDROOT
TORSDOF 0
REMARK  Name = ../refined-set-2016/4xmb/4xmb_pocket.pdb
REMARK  246 active torsions:
REMARK  status: ('A' for Active; 'I' for Inactive)
REMARK    1  A    between atoms: _1  and  _3
REMARK    2  A    between atoms: _3  and  _4
REMARK    3  A    between atoms: _6  and  _8
REMARK    4  A    between atoms: _8  and  _9
REMARK    5  A    between atoms: _8  and  _11
REMARK    6  A    between atoms: _11  and  _12
REMARK    7  A    between atoms: _17  and  _18
REMARK    8  A    between atoms: _20  and  _22
REMARK    9  A    between atoms: _22  and  _23
REMARK   10  A    between atoms: _22  and  _25
REMARK   11  A    between atoms: _25  and  _26
REMARK   12  A    between atoms: _32  and  _34
REMARK   13  A    between atoms: _34  and  _35
REMARK   14  A    between atoms: _34  and  _37
REMARK   15  A    between atoms: _37  and  _38
REMARK   16  A    between atoms: _38  and  _39
REMARK   17  A    between atoms: _39  and  _40
REMARK   18  A    between atoms: _49  and  _51
REMARK   19  A    between atoms: _51  and  _52
REMARK   20  A    between atoms: _51  and  _54
REMARK   21  A    between atoms: _54  and  _55
REMARK   22  A    between atoms: _55  and  _56
REMARK   23  A    between atoms: _61  and  _63
REMARK   24  A    between atoms: _63  and  _64
REMARK   25  A    between atoms: _63  and  _66
REMARK   26  A    between atoms: _66  and  _67
REMARK   27  A    between atoms: _69  and  _71
REMARK   28  A    between atoms: _71  and  _72
REMARK   29  A    between atoms: _71  and  _74
REMARK   30  A    between atoms: _74  and  _75
REMARK   31  A    between atoms: _78  and  _80
REMARK   32  A    between atoms: _80  and  _81
REMARK   33  A    between atoms: _80  and  _83
REMARK   34  A    between atoms: _83  and  _84
REMARK   35  A    between atoms: _84  and  _85
REMARK   36  A    between atoms: _85  and  _86
REMARK   37  A    between atoms: _95  and  _97
REMARK   38  A    between atoms: _97  and  _98
REMARK   39  A    between atoms: _97  and  _100
REMARK   40  A    between atoms: _100  and  _101
REMARK   41  A    between atoms: _103  and  _105
REMARK   42  A    between atoms: _105  and  _106
REMARK   43  A    between atoms: _108  and  _110
REMARK   44  A    between atoms: _110  and  _111
REMARK   45  A    between atoms: _110  and  _113
REMARK   46  A    between atoms: _113  and  _114
REMARK   47  A    between atoms: _117  and  _119
REMARK   48  A    between atoms: _119  and  _120
REMARK   49  A    between atoms: _122  and  _124
REMARK   50  A    between atoms: _124  and  _125
REMARK   51  A    between atoms: _127  and  _129
REMARK   52  A    between atoms: _129  and  _130
REMARK   53  A    between atoms: _129  and  _132
REMARK   54  A    between atoms: _132  and  _133
REMARK   55  A    between atoms: _133  and  _134
REMARK   56  A    between atoms: _134  and  _135
REMARK   57  A    between atoms: _144  and  _146
REMARK   58  A    between atoms: _146  and  _147
REMARK   59  A    between atoms: _146  and  _149
REMARK   60  A    between atoms: _149  and  _150
REMARK   61  A    between atoms: _155  and  _157
REMARK   62  A    between atoms: _157  and  _158
REMARK   63  A    between atoms: _157  and  _160
REMARK   64  A    between atoms: _160  and  _161
REMARK   65  A    between atoms: _164  and  _166
REMARK   66  A    between atoms: _166  and  _167
REMARK   67  A    between atoms: _166  and  _169
REMARK   68  A    between atoms: _169  and  _170
REMARK   69  A    between atoms: _173  and  _175
REMARK   70  A    between atoms: _175  and  _176
REMARK   71  A    between atoms: _175  and  _178
REMARK   72  A    between atoms: _178  and  _179
REMARK   73  A    between atoms: _181  and  _183
REMARK   74  A    between atoms: _183  and  _184
REMARK   75  A    between atoms: _183  and  _186
REMARK   76  A    between atoms: _186  and  _187
REMARK   77  A    between atoms: _187  and  _188
REMARK   78  A    between atoms: _188  and  _189
REMARK   79  A    between atoms: _198  and  _200
REMARK   80  A    between atoms: _200  and  _201
REMARK   81  A    between atoms: _200  and  _203
REMARK   82  A    between atoms: _203  and  _204
REMARK   83  A    between atoms: _209  and  _211
REMARK   84  A    between atoms: _211  and  _212
REMARK   85  A    between atoms: _211  and  _214
REMARK   86  A    between atoms: _214  and  _215
REMARK   87  A    between atoms: _215  and  _216
REMARK   88  A    between atoms: _216  and  _217
REMARK   89  A    between atoms: _226  and  _228
REMARK   90  A    between atoms: _228  and  _229
REMARK   91  A    between atoms: _228  and  _231
REMARK   92  A    between atoms: _231  and  _232
REMARK   93  A    between atoms: _235  and  _237
REMARK   94  A    between atoms: _237  and  _238
REMARK   95  A    between atoms: _240  and  _242
REMARK   96  A    between atoms: _242  and  _243
REMARK   97  A    between atoms: _242  and  _245
REMARK   98  A    between atoms: _245  and  _246
REMARK   99  A    between atoms: _248  and  _250
REMARK  100  A    between atoms: _250  and  _251
REMARK  101  A    between atoms: _250  and  _253
REMARK  102  A    between atoms: _253  and  _254
REMARK  103  A    between atoms: _259  and  _261
REMARK  104  A    between atoms: _261  and  _262
REMARK  105  A    between atoms: _261  and  _264
REMARK  106  A    between atoms: _264  and  _265
REMARK  107  A    between atoms: _265  and  _266
REMARK  108  A    between atoms: _266  and  _267
REMARK  109  A    between atoms: _276  and  _278
REMARK  110  A    between atoms: _278  and  _279
REMARK  111  A    between atoms: _278  and  _281
REMARK  112  A    between atoms: _281  and  _282
REMARK  113  A    between atoms: _285  and  _287
REMARK  114  A    between atoms: _287  and  _288
REMARK  115  A    between atoms: _290  and  _292
REMARK  116  A    between atoms: _292  and  _293
REMARK  117  A    between atoms: _292  and  _295
REMARK  118  A    between atoms: _298  and  _300
REMARK  119  A    between atoms: _300  and  _301
REMARK  120  A    between atoms: _303  and  _305
REMARK  121  A    between atoms: _305  and  _306
REMARK  122  A    between atoms: _308  and  _310
REMARK  123  A    between atoms: _310  and  _311
REMARK  124  A    between atoms: _310  and  _313
REMARK  125  A    between atoms: _313  and  _314
REMARK  126  A    between atoms: _320  and  _322
REMARK  127  A    between atoms: _322  and  _323
REMARK  128  A    between atoms: _322  and  _325
REMARK  129  A    between atoms: _325  and  _326
REMARK  130  A    between atoms: _329  and  _331
REMARK  131  A    between atoms: _331  and  _332
REMARK  132  A    between atoms: _334  and  _336
REMARK  133  A    between atoms: _336  and  _337
REMARK  134  A    between atoms: _336  and  _339
REMARK  135  A    between atoms: _339  and  _340
REMARK  136  A    between atoms: _345  and  _347
REMARK  137  A    between atoms: _347  and  _348
REMARK  138  A    between atoms: _347  and  _350
REMARK  139  A    between atoms: _350  and  _351
REMARK  140  A    between atoms: _351  and  _352
REMARK  141  A    between atoms: _352  and  _353
REMARK  142  A    between atoms: _362  and  _364
REMARK  143  A    between atoms: _364  and  _365
REMARK  144  A    between atoms: _364  and  _367
REMARK  145  A    between atoms: _367  and  _368
REMARK  146  A    between atoms: _371  and  _373
REMARK  147  A    between atoms: _373  and  _374
REMARK  148  A    between atoms: _373  and  _376
REMARK  149  A    between atoms: _376  and  _377
REMARK  150  A    between atoms: _377  and  _378
REMARK  151  A    between atoms: _378  and  _379
REMARK  152  A    between atoms: _388  and  _390
REMARK  153  A    between atoms: _390  and  _391
REMARK  154  A    between atoms: _390  and  _393
REMARK  155  A    between atoms: _393  and  _394
REMARK  156  A    between atoms: _396  and  _398
REMARK  157  A    between atoms: _398  and  _399
REMARK  158  A    between atoms: _401  and  _403
REMARK  159  A    between atoms: _403  and  _404
REMARK  160  A    between atoms: _407  and  _409
REMARK  161  A    between atoms: _409  and  _410
REMARK  162  A    between atoms: _412  and  _414
REMARK  163  A    between atoms: _414  and  _415
REMARK  164  A    between atoms: _414  and  _417
REMARK  165  A    between atoms: _417  and  _418
REMARK  166  A    between atoms: _423  and  _424
REMARK  167  A    between atoms: _426  and  _428
REMARK  168  A    between atoms: _428  and  _429
REMARK  169  A    between atoms: _428  and  _431
REMARK  170  A    between atoms: _431  and  _432
REMARK  171  A    between atoms: _435  and  _437
REMARK  172  A    between atoms: _437  and  _438
REMARK  173  A    between atoms: _440  and  _442
REMARK  174  A    between atoms: _442  and  _443
REMARK  175  A    between atoms: _442  and  _445
REMARK  176  A    between atoms: _445  and  _446
REMARK  177  A    between atoms: _446  and  _447
REMARK  178  A    between atoms: _452  and  _454
REMARK  179  A    between atoms: _454  and  _455
REMARK  180  A    between atoms: _454  and  _457
REMARK  181  A    between atoms: _457  and  _458
REMARK  182  A    between atoms: _461  and  _463
REMARK  183  A    between atoms: _463  and  _464
REMARK  184  A    between atoms: _463  and  _466
REMARK  185  A    between atoms: _466  and  _467
REMARK  186  A    between atoms: _467  and  _468
REMARK  187  A    between atoms: _473  and  _475
REMARK  188  A    between atoms: _475  and  _476
REMARK  189  A    between atoms: _475  and  _478
REMARK  190  A    between atoms: _478  and  _479
REMARK  191  A    between atoms: _482  and  _484
REMARK  192  A    between atoms: _484  and  _485
REMARK  193  A    between atoms: _484  and  _487
REMARK  194  A    between atoms: _487  and  _488
REMARK  195  A    between atoms: _488  and  _489
REMARK  196  A    between atoms: _489  and  _490
REMARK  197  A    between atoms: _499  and  _501
REMARK  198  A    between atoms: _501  and  _502
REMARK  199  A    between atoms: _501  and  _504
REMARK  200  A    between atoms: _504  and  _505
REMARK  201  A    between atoms: _507  and  _509
REMARK  202  A    between atoms: _509  and  _510
REMARK  203  A    between atoms: _513  and  _515
REMARK  204  A    between atoms: _515  and  _516
REMARK  205  A    between atoms: _515  and  _518
REMARK  206  A    between atoms: _518  and  _519
REMARK  207  A    between atoms: _522  and  _524
REMARK  208  A    between atoms: _524  and  _525
REMARK  209  A    between atoms: _527  and  _529
REMARK  210  A    between atoms: _529  and  _530
REMARK  211  A    between atoms: _529  and  _532
REMARK  212  A    between atoms: _532  and  _533
REMARK  213  A    between atoms: _538  and  _539
REMARK  214  A    between atoms: _541  and  _543
REMARK  215  A    between atoms: _543  and  _544
REMARK  216  A    between atoms: _543  and  _546
REMARK  217  A    between atoms: _546  and  _547
REMARK  218  A    between atoms: _550  and  _552
REMARK  219  A    between atoms: _552  and  _553
REMARK  220  A    between atoms: _555  and  _557
REMARK  221  A    between atoms: _557  and  _558
REMARK  222  A    between atoms: _557  and  _560
REMARK  223  A    between atoms: _560  and  _561
REMARK  224  A    between atoms: _566  and  _568
REMARK  225  A    between atoms: _568  and  _569
REMARK  226  A    between atoms: _568  and  _571
REMARK  227  A    between atoms: _571  and  _572
REMARK  228  A    between atoms: _575  and  _577
REMARK  229  A    between atoms: _577  and  _578
REMARK  230  A    between atoms: _577  and  _580
REMARK  231  A    between atoms: _580  and  _581
REMARK  232  A    between atoms: _587  and  _589
REMARK  233  A    between atoms: _589  and  _590
REMARK  234  A    between atoms: _589  and  _592
REMARK  235  A    between atoms: _592  and  _593
REMARK  236  A    between atoms: _593  and  _594
REMARK  237  A    between atoms: _594  and  _595
REMARK  238  A    between atoms: _604  and  _606
REMARK  239  A    between atoms: _606  and  _607
REMARK  240  A    between atoms: _606  and  _609
REMARK  241  A    between atoms: _609  and  _610
REMARK  242  A    between atoms: _612  and  _614
REMARK  243  A    between atoms: _614  and  _615
REMARK  244  A    between atoms: _617  and  _619
REMARK  245  A    between atoms: _619  and  _620
REMARK  246  A    between atoms: _619  and  _622
REMARK                            x       y       z     vdW  Elec       q    Type
REMARK                         _______ _______ _______ _____ _____    ______ ____
ROOT
ATOM      1  O   HOH     1      -2.521  -0.023 -17.830  0.00  0.00    +0.000 OA
ENDROOT
TORSDOF 0
REMARK  Name = ../refined-set-2016/4xmb/4xmb_pocket.pdb
REMARK  246 active torsions:
REMARK  status: ('A' for Active; 'I' for Inactive)
REMARK    1  A    between atoms: _1  and  _3
REMARK    2  A    between atoms: _3  and  _4
REMARK    3  A    between atoms: _6  and  _8
REMARK    4  A    between atoms: _8  and  _9
REMARK    5  A    between atoms: _8  and  _11
REMARK    6  A    between atoms: _11  and  _12
REMARK    7  A    between atoms: _17  and  _18
REMARK    8  A    between atoms: _20  and  _22
REMARK    9  A    between atoms: _22  and  _23
REMARK   10  A    between atoms: _22  and  _25
REMARK   11  A    between atoms: _25  and  _26
REMARK   12  A    between atoms: _32  and  _34
REMARK   13  A    between atoms: _34  and  _35
REMARK   14  A    between atoms: _34  and  _37
REMARK   15  A    between atoms: _37  and  _38
REMARK   16  A    between atoms: _38  and  _39
REMARK   17  A    between atoms: _39  and  _40
REMARK   18  A    between atoms: _49  and  _51
REMARK   19  A    between atoms: _51  and  _52
REMARK   20  A    between atoms: _51  and  _54
REMARK   21  A    between atoms: _54  and  _55
REMARK   22  A    between atoms: _55  and  _56
REMARK   23  A    between atoms: _61  and  _63
REMARK   24  A    between atoms: _63  and  _64
REMARK   25  A    between atoms: _63  and  _66
REMARK   26  A    between atoms: _66  and  _67
REMARK   27  A    between atoms: _69  and  _71
REMARK   28  A    between atoms: _71  and  _72
REMARK   29  A    between atoms: _71  and  _74
REMARK   30  A    between atoms: _74  and  _75
REMARK   31  A    between atoms: _78  and  _80
REMARK   32  A    between atoms: _80  and  _81
REMARK   33  A    between atoms: _80  and  _83
REMARK   34  A    between atoms: _83  and  _84
REMARK   35  A    between atoms: _84  and  _85
REMARK   36  A    between atoms: _85  and  _86
REMARK   37  A    between atoms: _95  and  _97
REMARK   38  A    between atoms: _97  and  _98
REMARK   39  A    between atoms: _97  and  _100
REMARK   40  A    between atoms: _100  and  _101
REMARK   41  A    between atoms: _103  and  _105
REMARK   42  A    between atoms: _105  and  _106
REMARK   43  A    between atoms: _108  and  _110
REMARK   44  A    between atoms: _110  and  _111
REMARK   45  A    between atoms: _110  and  _113
REMARK   46  A    between atoms: _113  and  _114
REMARK   47  A    between atoms: _117  and  _119
REMARK   48  A    between atoms: _119  and  _120
REMARK   49  A    between atoms: _122  and  _124
REMARK   50  A    between atoms: _124  and  _125
REMARK   51  A    between atoms: _127  and  _129
REMARK   52  A    between atoms: _129  and  _130
REMARK   53  A    between atoms: _129  and  _132
REMARK   54  A    between atoms: _132  and  _133
REMARK   55  A    between atoms: _133  and  _134
REMARK   56  A    between atoms: _134  and  _135
REMARK   57  A    between atoms: _144  and  _146
REMARK   58  A    between atoms: _146  and  _147
REMARK   59  A    between atoms: _146  and  _149
REMARK   60  A    between atoms: _149  and  _150
REMARK   61  A    between atoms: _155  and  _157
REMARK   62  A    between atoms: _157  and  _158
REMARK   63  A    between atoms: _157  and  _160
REMARK   64  A    between atoms: _160  and  _161
REMARK   65  A    between atoms: _164  and  _166
REMARK   66  A    between atoms: _166  and  _167
REMARK   67  A    between atoms: _166  and  _169
REMARK   68  A    between atoms: _169  and  _170
REMARK   69  A    between atoms: _173  and  _175
REMARK   70  A    between atoms: _175  and  _176
REMARK   71  A    between atoms: _175  and  _178
REMARK   72  A    between atoms: _178  and  _179
REMARK   73  A    between atoms: _181  and  _183
REMARK   74  A    between atoms: _183  and  _184
REMARK   75  A    between atoms: _183  and  _186
REMARK   76  A    between atoms: _186  and  _187
REMARK   77  A    between atoms: _187  and  _188
REMARK   78  A    between atoms: _188  and  _189
REMARK   79  A    between atoms: _198  and  _200
REMARK   80  A    between atoms: _200  and  _201
REMARK   81  A    between atoms: _200  and  _203
REMARK   82  A    between atoms: _203  and  _204
REMARK   83  A    between atoms: _209  and  _211
REMARK   84  A    between atoms: _211  and  _212
REMARK   85  A    between atoms: _211  and  _214
REMARK   86  A    between atoms: _214  and  _215
REMARK   87  A    between atoms: _215  and  _216
REMARK   88  A    between atoms: _216  and  _217
REMARK   89  A    between atoms: _226  and  _228
REMARK   90  A    between atoms: _228  and  _229
REMARK   91  A    between atoms: _228  and  _231
REMARK   92  A    between atoms: _231  and  _232
REMARK   93  A    between atoms: _235  and  _237
REMARK   94  A    between atoms: _237  and  _238
REMARK   95  A    between atoms: _240  and  _242
REMARK   96  A    between atoms: _242  and  _243
REMARK   97  A    between atoms: _242  and  _245
REMARK   98  A    between atoms: _245  and  _246
REMARK   99  A    between atoms: _248  and  _250
REMARK  100  A    between atoms: _250  and  _251
REMARK  101  A    between atoms: _250  and  _253
REMARK  102  A    between atoms: _253  and  _254
REMARK  103  A    between atoms: _259  and  _261
REMARK  104  A    between atoms: _261  and  _262
REMARK  105  A    between atoms: _261  and  _264
REMARK  106  A    between atoms: _264  and  _265
REMARK  107  A    between atoms: _265  and  _266
REMARK  108  A    between atoms: _266  and  _267
REMARK  109  A    between atoms: _276  and  _278
REMARK  110  A    between atoms: _278  and  _279
REMARK  111  A    between atoms: _278  and  _281
REMARK  112  A    between atoms: _281  and  _282
REMARK  113  A    between atoms: _285  and  _287
REMARK  114  A    between atoms: _287  and  _288
REMARK  115  A    between atoms: _290  and  _292
REMARK  116  A    between atoms: _292  and  _293
REMARK  117  A    between atoms: _292  and  _295
REMARK  118  A    between atoms: _298  and  _300
REMARK  119  A    between atoms: _300  and  _301
REMARK  120  A    between atoms: _303  and  _305
REMARK  121  A    between atoms: _305  and  _306
REMARK  122  A    between atoms: _308  and  _310
REMARK  123  A    between atoms: _310  and  _311
REMARK  124  A    between atoms: _310  and  _313
REMARK  125  A    between atoms: _313  and  _314
REMARK  126  A    between atoms: _320  and  _322
REMARK  127  A    between atoms: _322  and  _323
REMARK  128  A    between atoms: _322  and  _325
REMARK  129  A    between atoms: _325  and  _326
REMARK  130  A    between atoms: _329  and  _331
REMARK  131  A    between atoms: _331  and  _332
REMARK  132  A    between atoms: _334  and  _336
REMARK  133  A    between atoms: _336  and  _337
REMARK  134  A    between atoms: _336  and  _339
REMARK  135  A    between atoms: _339  and  _340
REMARK  136  A    between atoms: _345  and  _347
REMARK  137  A    between atoms: _347  and  _348
REMARK  138  A    between atoms: _347  and  _350
REMARK  139  A    between atoms: _350  and  _351
REMARK  140  A    between atoms: _351  and  _352
REMARK  141  A    between atoms: _352  and  _353
REMARK  142  A    between atoms: _362  and  _364
REMARK  143  A    between atoms: _364  and  _365
REMARK  144  A    between atoms: _364  and  _367
REMARK  145  A    between atoms: _367  and  _368
REMARK  146  A    between atoms: _371  and  _373
REMARK  147  A    between atoms: _373  and  _374
REMARK  148  A    between atoms: _373  and  _376
REMARK  149  A    between atoms: _376  and  _377
REMARK  150  A    between atoms: _377  and  _378
REMARK  151  A    between atoms: _378  and  _379
REMARK  152  A    between atoms: _388  and  _390
REMARK  153  A    between atoms: _390  and  _391
REMARK  154  A    between atoms: _390  and  _393
REMARK  155  A    between atoms: _393  and  _394
REMARK  156  A    between atoms: _396  and  _398
REMARK  157  A    between atoms: _398  and  _399
REMARK  158  A    between atoms: _401  and  _403
REMARK  159  A    between atoms: _403  and  _404
REMARK  160  A    between atoms: _407  and  _409
REMARK  161  A    between atoms: _409  and  _410
REMARK  162  A    between atoms: _412  and  _414
REMARK  163  A    between atoms: _414  and  _415
REMARK  164  A    between atoms: _414  and  _417
REMARK  165  A    between atoms: _417  and  _418
REMARK  166  A    between atoms: _423  and  _424
REMARK  167  A    between atoms: _426  and  _428
REMARK  168  A    between atoms: _428  and  _429
REMARK  169  A    between atoms: _428  and  _431
REMARK  170  A    between atoms: _431  and  _432
REMARK  171  A    between atoms: _435  and  _437
REMARK  172  A    between atoms: _437  and  _438
REMARK  173  A    between atoms: _440  and  _442
REMARK  174  A    between atoms: _442  and  _443
REMARK  175  A    between atoms: _442  and  _445
REMARK  176  A    between atoms: _445  and  _446
REMARK  177  A    between atoms: _446  and  _447
REMARK  178  A    between atoms: _452  and  _454
REMARK  179  A    between atoms: _454  and  _455
REMARK  180  A    between atoms: _454  and  _457
REMARK  181  A    between atoms: _457  and  _458
REMARK  182  A    between atoms: _461  and  _463
REMARK  183  A    between atoms: _463  and  _464
REMARK  184  A    between atoms: _463  and  _466
REMARK  185  A    between atoms: _466  and  _467
REMARK  186  A    between atoms: _467  and  _468
REMARK  187  A    between atoms: _473  and  _475
REMARK  188  A    between atoms: _475  and  _476
REMARK  189  A    between atoms: _475  and  _478
REMARK  190  A    between atoms: _478  and  _479
REMARK  191  A    between atoms: _482  and  _484
REMARK  192  A    between atoms: _484  and  _485
REMARK  193  A    between atoms: _484  and  _487
REMARK  194  A    between atoms: _487  and  _488
REMARK  195  A    between atoms: _488  and  _489
REMARK  196  A    between atoms: _489  and  _490
REMARK  197  A    between atoms: _499  and  _501
REMARK  198  A    between atoms: _501  and  _502
REMARK  199  A    between atoms: _501  and  _504
REMARK  200  A    between atoms: _504  and  _505
REMARK  201  A    between atoms: _507  and  _509
REMARK  202  A    between atoms: _509  and  _510
REMARK  203  A    between atoms: _513  and  _515
REMARK  204  A    between atoms: _515  and  _516
REMARK  205  A    between atoms: _515  and  _518
REMARK  206  A    between atoms: _518  and  _519
REMARK  207  A    between atoms: _522  and  _524
REMARK  208  A    between atoms: _524  and  _525
REMARK  209  A    between atoms: _527  and  _529
REMARK  210  A    between atoms: _529  and  _530
REMARK  211  A    between atoms: _529  and  _532
REMARK  212  A    between atoms: _532  and  _533
REMARK  213  A    between atoms: _538  and  _539
REMARK  214  A    between atoms: _541  and  _543
REMARK  215  A    between atoms: _543  and  _544
REMARK  216  A    between atoms: _543  and  _546
REMARK  217  A    between atoms: _546  and  _547
REMARK  218  A    between atoms: _550  and  _552
REMARK  219  A    between atoms: _552  and  _553
REMARK  220  A    between atoms: _555  and  _557
REMARK  221  A    between atoms: _557  and  _558
REMARK  222  A    between atoms: _557  and  _560
REMARK  223  A    between atoms: _560  and  _561
REMARK  224  A    between atoms: _566  and  _568
REMARK  225  A    between atoms: _568  and  _569
REMARK  226  A    between atoms: _568  and  _571
REMARK  227  A    between atoms: _571  and  _572
REMARK  228  A    between atoms: _575  and  _577
REMARK  229  A    between atoms: _577  and  _578
REMARK  230  A    between atoms: _577  and  _580
REMARK  231  A    between atoms: _580  and  _581
REMARK  232  A    between atoms: _587  and  _589
REMARK  233  A    between atoms: _589  and  _590
REMARK  234  A    between atoms: _589  and  _592
REMARK  235  A    between atoms: _592  and  _593
REMARK  236  A    between atoms: _593  and  _594
REMARK  237  A    between atoms: _594  and  _595
REMARK  238  A    between atoms: _604  and  _606
REMARK  239  A    between atoms: _606  and  _607
REMARK  240  A    between atoms: _606  and  _609
REMARK  241  A    between atoms: _609  and  _610
REMARK  242  A    between atoms: _612  and  _614
REMARK  243  A    between atoms: _614  and  _615
REMARK  244  A    between atoms: _617  and  _619
REMARK  245  A    between atoms: _619  and  _620
REMARK  246  A    between atoms: _619  and  _622
REMARK                            x       y       z     vdW  Elec       q    Type
REMARK                         _______ _______ _______ _____ _____    ______ ____
ROOT
ATOM      1  O   HOH     1      -3.632   0.551 -19.868  0.00  0.00    +0.000 OA
ENDROOT
TORSDOF 0
REMARK  Name = ../refined-set-2016/4xmb/4xmb_pocket.pdb
REMARK  246 active torsions:
REMARK  status: ('A' for Active; 'I' for Inactive)
REMARK    1  A    between atoms: _1  and  _3
REMARK    2  A    between atoms: _3  and  _4
REMARK    3  A    between atoms: _6  and  _8
REMARK    4  A    between atoms: _8  and  _9
REMARK    5  A    between atoms: _8  and  _11
REMARK    6  A    between atoms: _11  and  _12
REMARK    7  A    between atoms: _17  and  _18
REMARK    8  A    between atoms: _20  and  _22
REMARK    9  A    between atoms: _22  and  _23
REMARK   10  A    between atoms: _22  and  _25
REMARK   11  A    between atoms: _25  and  _26
REMARK   12  A    between atoms: _32  and  _34
REMARK   13  A    between atoms: _34  and  _35
REMARK   14  A    between atoms: _34  and  _37
REMARK   15  A    between atoms: _37  and  _38
REMARK   16  A    between atoms: _38  and  _39
REMARK   17  A    between atoms: _39  and  _40
REMARK   18  A    between atoms: _49  and  _51
REMARK   19  A    between atoms: _51  and  _52
REMARK   20  A    between atoms: _51  and  _54
REMARK   21  A    between atoms: _54  and  _55
REMARK   22  A    between atoms: _55  and  _56
REMARK   23  A    between atoms: _61  and  _63
REMARK   24  A    between atoms: _63  and  _64
REMARK   25  A    between atoms: _63  and  _66
REMARK   26  A    between atoms: _66  and  _67
REMARK   27  A    between atoms: _69  and  _71
REMARK   28  A    between atoms: _71  and  _72
REMARK   29  A    between atoms: _71  and  _74
REMARK   30  A    between atoms: _74  and  _75
REMARK   31  A    between atoms: _78  and  _80
REMARK   32  A    between atoms: _80  and  _81
REMARK   33  A    between atoms: _80  and  _83
REMARK   34  A    between atoms: _83  and  _84
REMARK   35  A    between atoms: _84  and  _85
REMARK   36  A    between atoms: _85  and  _86
REMARK   37  A    between atoms: _95  and  _97
REMARK   38  A    between atoms: _97  and  _98
REMARK   39  A    between atoms: _97  and  _100
REMARK   40  A    between atoms: _100  and  _101
REMARK   41  A    between atoms: _103  and  _105
REMARK   42  A    between atoms: _105  and  _106
REMARK   43  A    between atoms: _108  and  _110
REMARK   44  A    between atoms: _110  and  _111
REMARK   45  A    between atoms: _110  and  _113
REMARK   46  A    between atoms: _113  and  _114
REMARK   47  A    between atoms: _117  and  _119
REMARK   48  A    between atoms: _119  and  _120
REMARK   49  A    between atoms: _122  and  _124
REMARK   50  A    between atoms: _124  and  _125
REMARK   51  A    between atoms: _127  and  _129
REMARK   52  A    between atoms: _129  and  _130
REMARK   53  A    between atoms: _129  and  _132
REMARK   54  A    between atoms: _132  and  _133
REMARK   55  A    between atoms: _133  and  _134
REMARK   56  A    between atoms: _134  and  _135
REMARK   57  A    between atoms: _144  and  _146
REMARK   58  A    between atoms: _146  and  _147
REMARK   59  A    between atoms: _146  and  _149
REMARK   60  A    between atoms: _149  and  _150
REMARK   61  A    between atoms: _155  and  _157
REMARK   62  A    between atoms: _157  and  _158
REMARK   63  A    between atoms: _157  and  _160
REMARK   64  A    between atoms: _160  and  _161
REMARK   65  A    between atoms: _164  and  _166
REMARK   66  A    between atoms: _166  and  _167
REMARK   67  A    between atoms: _166  and  _169
REMARK   68  A    between atoms: _169  and  _170
REMARK   69  A    between atoms: _173  and  _175
REMARK   70  A    between atoms: _175  and  _176
REMARK   71  A    between atoms: _175  and  _178
REMARK   72  A    between atoms: _178  and  _179
REMARK   73  A    between atoms: _181  and  _183
REMARK   74  A    between atoms: _183  and  _184
REMARK   75  A    between atoms: _183  and  _186
REMARK   76  A    between atoms: _186  and  _187
REMARK   77  A    between atoms: _187  and  _188
REMARK   78  A    between atoms: _188  and  _189
REMARK   79  A    between atoms: _198  and  _200
REMARK   80  A    between atoms: _200  and  _201
REMARK   81  A    between atoms: _200  and  _203
REMARK   82  A    between atoms: _203  and  _204
REMARK   83  A    between atoms: _209  and  _211
REMARK   84  A    between atoms: _211  and  _212
REMARK   85  A    between atoms: _211  and  _214
REMARK   86  A    between atoms: _214  and  _215
REMARK   87  A    between atoms: _215  and  _216
REMARK   88  A    between atoms: _216  and  _217
REMARK   89  A    between atoms: _226  and  _228
REMARK   90  A    between atoms: _228  and  _229
REMARK   91  A    between atoms: _228  and  _231
REMARK   92  A    between atoms: _231  and  _232
REMARK   93  A    between atoms: _235  and  _237
REMARK   94  A    between atoms: _237  and  _238
REMARK   95  A    between atoms: _240  and  _242
REMARK   96  A    between atoms: _242  and  _243
REMARK   97  A    between atoms: _242  and  _245
REMARK   98  A    between atoms: _245  and  _246
REMARK   99  A    between atoms: _248  and  _250
REMARK  100  A    between atoms: _250  and  _251
REMARK  101  A    between atoms: _250  and  _253
REMARK  102  A    between atoms: _253  and  _254
REMARK  103  A    between atoms: _259  and  _261
REMARK  104  A    between atoms: _261  and  _262
REMARK  105  A    between atoms: _261  and  _264
REMARK  106  A    between atoms: _264  and  _265
REMARK  107  A    between atoms: _265  and  _266
REMARK  108  A    between atoms: _266  and  _267
REMARK  109  A    between atoms: _276  and  _278
REMARK  110  A    between atoms: _278  and  _279
REMARK  111  A    between atoms: _278  and  _281
REMARK  112  A    between atoms: _281  and  _282
REMARK  113  A    between atoms: _285  and  _287
REMARK  114  A    between atoms: _287  and  _288
REMARK  115  A    between atoms: _290  and  _292
REMARK  116  A    between atoms: _292  and  _293
REMARK  117  A    between atoms: _292  and  _295
REMARK  118  A    between atoms: _298  and  _300
REMARK  119  A    between atoms: _300  and  _301
REMARK  120  A    between atoms: _303  and  _305
REMARK  121  A    between atoms: _305  and  _306
REMARK  122  A    between atoms: _308  and  _310
REMARK  123  A    between atoms: _310  and  _311
REMARK  124  A    between atoms: _310  and  _313
REMARK  125  A    between atoms: _313  and  _314
REMARK  126  A    between atoms: _320  and  _322
REMARK  127  A    between atoms: _322  and  _323
REMARK  128  A    between atoms: _322  and  _325
REMARK  129  A    between atoms: _325  and  _326
REMARK  130  A    between atoms: _329  and  _331
REMARK  131  A    between atoms: _331  and  _332
REMARK  132  A    between atoms: _334  and  _336
REMARK  133  A    between atoms: _336  and  _337
REMARK  134  A    between atoms: _336  and  _339
REMARK  135  A    between atoms: _339  and  _340
REMARK  136  A    between atoms: _345  and  _347
REMARK  137  A    between atoms: _347  and  _348
REMARK  138  A    between atoms: _347  and  _350
REMARK  139  A    between atoms: _350  and  _351
REMARK  140  A    between atoms: _351  and  _352
REMARK  141  A    between atoms: _352  and  _353
REMARK  142  A    between atoms: _362  and  _364
REMARK  143  A    between atoms: _364  and  _365
REMARK  144  A    between atoms: _364  and  _367
REMARK  145  A    between atoms: _367  and  _368
REMARK  146  A    between atoms: _371  and  _373
REMARK  147  A    between atoms: _373  and  _374
REMARK  148  A    between atoms: _373  and  _376
REMARK  149  A    between atoms: _376  and  _377
REMARK  150  A    between atoms: _377  and  _378
REMARK  151  A    between atoms: _378  and  _379
REMARK  152  A    between atoms: _388  and  _390
REMARK  153  A    between atoms: _390  and  _391
REMARK  154  A    between atoms: _390  and  _393
REMARK  155  A    between atoms: _393  and  _394
REMARK  156  A    between atoms: _396  and  _398
REMARK  157  A    between atoms: _398  and  _399
REMARK  158  A    between atoms: _401  and  _403
REMARK  159  A    between atoms: _403  and  _404
REMARK  160  A    between atoms: _407  and  _409
REMARK  161  A    between atoms: _409  and  _410
REMARK  162  A    between atoms: _412  and  _414
REMARK  163  A    between atoms: _414  and  _415
REMARK  164  A    between atoms: _414  and  _417
REMARK  165  A    between atoms: _417  and  _418
REMARK  166  A    between atoms: _423  and  _424
REMARK  167  A    between atoms: _426  and  _428
REMARK  168  A    between atoms: _428  and  _429
REMARK  169  A    between atoms: _428  and  _431
REMARK  170  A    between atoms: _431  and  _432
REMARK  171  A    between atoms: _435  and  _437
REMARK  172  A    between atoms: _437  and  _438
REMARK  173  A    between atoms: _440  and  _442
REMARK  174  A    between atoms: _442  and  _443
REMARK  175  A    between atoms: _442  and  _445
REMARK  176  A    between atoms: _445  and  _446
REMARK  177  A    between atoms: _446  and  _447
REMARK  178  A    between atoms: _452  and  _454
REMARK  179  A    between atoms: _454  and  _455
REMARK  180  A    between atoms: _454  and  _457
REMARK  181  A    between atoms: _457  and  _458
REMARK  182  A    between atoms: _461  and  _463
REMARK  183  A    between atoms: _463  and  _464
REMARK  184  A    between atoms: _463  and  _466
REMARK  185  A    between atoms: _466  and  _467
REMARK  186  A    between atoms: _467  and  _468
REMARK  187  A    between atoms: _473  and  _475
REMARK  188  A    between atoms: _475  and  _476
REMARK  189  A    between atoms: _475  and  _478
REMARK  190  A    between atoms: _478  and  _479
REMARK  191  A    between atoms: _482  and  _484
REMARK  192  A    between atoms: _484  and  _485
REMARK  193  A    between atoms: _484  and  _487
REMARK  194  A    between atoms: _487  and  _488
REMARK  195  A    between atoms: _488  and  _489
REMARK  196  A    between atoms: _489  and  _490
REMARK  197  A    between atoms: _499  and  _501
REMARK  198  A    between atoms: _501  and  _502
REMARK  199  A    between atoms: _501  and  _504
REMARK  200  A    between atoms: _504  and  _505
REMARK  201  A    between atoms: _507  and  _509
REMARK  202  A    between atoms: _509  and  _510
REMARK  203  A    between atoms: _513  and  _515
REMARK  204  A    between atoms: _515  and  _516
REMARK  205  A    between atoms: _515  and  _518
REMARK  206  A    between atoms: _518  and  _519
REMARK  207  A    between atoms: _522  and  _524
REMARK  208  A    between atoms: _524  and  _525
REMARK  209  A    between atoms: _527  and  _529
REMARK  210  A    between atoms: _529  and  _530
REMARK  211  A    between atoms: _529  and  _532
REMARK  212  A    between atoms: _532  and  _533
REMARK  213  A    between atoms: _538  and  _539
REMARK  214  A    between atoms: _541  and  _543
REMARK  215  A    between atoms: _543  and  _544
REMARK  216  A    between atoms: _543  and  _546
REMARK  217  A    between atoms: _546  and  _547
REMARK  218  A    between atoms: _550  and  _552
REMARK  219  A    between atoms: _552  and  _553
REMARK  220  A    between atoms: _555  and  _557
REMARK  221  A    between atoms: _557  and  _558
REMARK  222  A    between atoms: _557  and  _560
REMARK  223  A    between atoms: _560  and  _561
REMARK  224  A    between atoms: _566  and  _568
REMARK  225  A    between atoms: _568  and  _569
REMARK  226  A    between atoms: _568  and  _571
REMARK  227  A    between atoms: _571  and  _572
REMARK  228  A    between atoms: _575  and  _577
REMARK  229  A    between atoms: _577  and  _578
REMARK  230  A    between atoms: _577  and  _580
REMARK  231  A    between atoms: _580  and  _581
REMARK  232  A    between atoms: _587  and  _589
REMARK  233  A    between atoms: _589  and  _590
REMARK  234  A    between atoms: _589  and  _592
REMARK  235  A    between atoms: _592  and  _593
REMARK  236  A    between atoms: _593  and  _594
REMARK  237  A    between atoms: _594  and  _595
REMARK  238  A    between atoms: _604  and  _606
REMARK  239  A    between atoms: _606  and  _607
REMARK  240  A    between atoms: _606  and  _609
REMARK  241  A    between atoms: _609  and  _610
REMARK  242  A    between atoms: _612  and  _614
REMARK  243  A    between atoms: _614  and  _615
REMARK  244  A    between atoms: _617  and  _619
REMARK  245  A    between atoms: _619  and  _620
REMARK  246  A    between atoms: _619  and  _622
REMARK                            x       y       z     vdW  Elec       q    Type
REMARK                         _______ _______ _______ _____ _____    ______ ____
ROOT
ATOM      1  O   HOH     1      -4.559   5.268 -17.441  0.00  0.00    +0.000 OA
ENDROOT
TORSDOF 0
REMARK  Name = ../refined-set-2016/4xmb/4xmb_pocket.pdb
REMARK  246 active torsions:
REMARK  status: ('A' for Active; 'I' for Inactive)
REMARK    1  A    between atoms: _1  and  _3
REMARK    2  A    between atoms: _3  and  _4
REMARK    3  A    between atoms: _6  and  _8
REMARK    4  A    between atoms: _8  and  _9
REMARK    5  A    between atoms: _8  and  _11
REMARK    6  A    between atoms: _11  and  _12
REMARK    7  A    between atoms: _17  and  _18
REMARK    8  A    between atoms: _20  and  _22
REMARK    9  A    between atoms: _22  and  _23
REMARK   10  A    between atoms: _22  and  _25
REMARK   11  A    between atoms: _25  and  _26
REMARK   12  A    between atoms: _32  and  _34
REMARK   13  A    between atoms: _34  and  _35
REMARK   14  A    between atoms: _34  and  _37
REMARK   15  A    between atoms: _37  and  _38
REMARK   16  A    between atoms: _38  and  _39
REMARK   17  A    between atoms: _39  and  _40
REMARK   18  A    between atoms: _49  and  _51
REMARK   19  A    between atoms: _51  and  _52
REMARK   20  A    between atoms: _51  and  _54
REMARK   21  A    between atoms: _54  and  _55
REMARK   22  A    between atoms: _55  and  _56
REMARK   23  A    between atoms: _61  and  _63
REMARK   24  A    between atoms: _63  and  _64
REMARK   25  A    between atoms: _63  and  _66
REMARK   26  A    between atoms: _66  and  _67
REMARK   27  A    between atoms: _69  and  _71
REMARK   28  A    between atoms: _71  and  _72
REMARK   29  A    between atoms: _71  and  _74
REMARK   30  A    between atoms: _74  and  _75
REMARK   31  A    between atoms: _78  and  _80
REMARK   32  A    between atoms: _80  and  _81
REMARK   33  A    between atoms: _80  and  _83
REMARK   34  A    between atoms: _83  and  _84
REMARK   35  A    between atoms: _84  and  _85
REMARK   36  A    between atoms: _85  and  _86
REMARK   37  A    between atoms: _95  and  _97
REMARK   38  A    between atoms: _97  and  _98
REMARK   39  A    between atoms: _97  and  _100
REMARK   40  A    between atoms: _100  and  _101
REMARK   41  A    between atoms: _103  and  _105
REMARK   42  A    between atoms: _105  and  _106
REMARK   43  A    between atoms: _108  and  _110
REMARK   44  A    between atoms: _110  and  _111
REMARK   45  A    between atoms: _110  and  _113
REMARK   46  A    between atoms: _113  and  _114
REMARK   47  A    between atoms: _117  and  _119
REMARK   48  A    between atoms: _119  and  _120
REMARK   49  A    between atoms: _122  and  _124
REMARK   50  A    between atoms: _124  and  _125
REMARK   51  A    between atoms: _127  and  _129
REMARK   52  A    between atoms: _129  and  _130
REMARK   53  A    between atoms: _129  and  _132
REMARK   54  A    between atoms: _132  and  _133
REMARK   55  A    between atoms: _133  and  _134
REMARK   56  A    between atoms: _134  and  _135
REMARK   57  A    between atoms: _144  and  _146
REMARK   58  A    between atoms: _146  and  _147
REMARK   59  A    between atoms: _146  and  _149
REMARK   60  A    between atoms: _149  and  _150
REMARK   61  A    between atoms: _155  and  _157
REMARK   62  A    between atoms: _157  and  _158
REMARK   63  A    between atoms: _157  and  _160
REMARK   64  A    between atoms: _160  and  _161
REMARK   65  A    between atoms: _164  and  _166
REMARK   66  A    between atoms: _166  and  _167
REMARK   67  A    between atoms: _166  and  _169
REMARK   68  A    between atoms: _169  and  _170
REMARK   69  A    between atoms: _173  and  _175
REMARK   70  A    between atoms: _175  and  _176
REMARK   71  A    between atoms: _175  and  _178
REMARK   72  A    between atoms: _178  and  _179
REMARK   73  A    between atoms: _181  and  _183
REMARK   74  A    between atoms: _183  and  _184
REMARK   75  A    between atoms: _183  and  _186
REMARK   76  A    between atoms: _186  and  _187
REMARK   77  A    between atoms: _187  and  _188
REMARK   78  A    between atoms: _188  and  _189
REMARK   79  A    between atoms: _198  and  _200
REMARK   80  A    between atoms: _200  and  _201
REMARK   81  A    between atoms: _200  and  _203
REMARK   82  A    between atoms: _203  and  _204
REMARK   83  A    between atoms: _209  and  _211
REMARK   84  A    between atoms: _211  and  _212
REMARK   85  A    between atoms: _211  and  _214
REMARK   86  A    between atoms: _214  and  _215
REMARK   87  A    between atoms: _215  and  _216
REMARK   88  A    between atoms: _216  and  _217
REMARK   89  A    between atoms: _226  and  _228
REMARK   90  A    between atoms: _228  and  _229
REMARK   91  A    between atoms: _228  and  _231
REMARK   92  A    between atoms: _231  and  _232
REMARK   93  A    between atoms: _235  and  _237
REMARK   94  A    between atoms: _237  and  _238
REMARK   95  A    between atoms: _240  and  _242
REMARK   96  A    between atoms: _242  and  _243
REMARK   97  A    between atoms: _242  and  _245
REMARK   98  A    between atoms: _245  and  _246
REMARK   99  A    between atoms: _248  and  _250
REMARK  100  A    between atoms: _250  and  _251
REMARK  101  A    between atoms: _250  and  _253
REMARK  102  A    between atoms: _253  and  _254
REMARK  103  A    between atoms: _259  and  _261
REMARK  104  A    between atoms: _261  and  _262
REMARK  105  A    between atoms: _261  and  _264
REMARK  106  A    between atoms: _264  and  _265
REMARK  107  A    between atoms: _265  and  _266
REMARK  108  A    between atoms: _266  and  _267
REMARK  109  A    between atoms: _276  and  _278
REMARK  110  A    between atoms: _278  and  _279
REMARK  111  A    between atoms: _278  and  _281
REMARK  112  A    between atoms: _281  and  _282
REMARK  113  A    between atoms: _285  and  _287
REMARK  114  A    between atoms: _287  and  _288
REMARK  115  A    between atoms: _290  and  _292
REMARK  116  A    between atoms: _292  and  _293
REMARK  117  A    between atoms: _292  and  _295
REMARK  118  A    between atoms: _298  and  _300
REMARK  119  A    between atoms: _300  and  _301
REMARK  120  A    between atoms: _303  and  _305
REMARK  121  A    between atoms: _305  and  _306
REMARK  122  A    between atoms: _308  and  _310
REMARK  123  A    between atoms: _310  and  _311
REMARK  124  A    between atoms: _310  and  _313
REMARK  125  A    between atoms: _313  and  _314
REMARK  126  A    between atoms: _320  and  _322
REMARK  127  A    between atoms: _322  and  _323
REMARK  128  A    between atoms: _322  and  _325
REMARK  129  A    between atoms: _325  and  _326
REMARK  130  A    between atoms: _329  and  _331
REMARK  131  A    between atoms: _331  and  _332
REMARK  132  A    between atoms: _334  and  _336
REMARK  133  A    between atoms: _336  and  _337
REMARK  134  A    between atoms: _336  and  _339
REMARK  135  A    between atoms: _339  and  _340
REMARK  136  A    between atoms: _345  and  _347
REMARK  137  A    between atoms: _347  and  _348
REMARK  138  A    between atoms: _347  and  _350
REMARK  139  A    between atoms: _350  and  _351
REMARK  140  A    between atoms: _351  and  _352
REMARK  141  A    between atoms: _352  and  _353
REMARK  142  A    between atoms: _362  and  _364
REMARK  143  A    between atoms: _364  and  _365
REMARK  144  A    between atoms: _364  and  _367
REMARK  145  A    between atoms: _367  and  _368
REMARK  146  A    between atoms: _371  and  _373
REMARK  147  A    between atoms: _373  and  _374
REMARK  148  A    between atoms: _373  and  _376
REMARK  149  A    between atoms: _376  and  _377
REMARK  150  A    between atoms: _377  and  _378
REMARK  151  A    between atoms: _378  and  _379
REMARK  152  A    between atoms: _388  and  _390
REMARK  153  A    between atoms: _390  and  _391
REMARK  154  A    between atoms: _390  and  _393
REMARK  155  A    between atoms: _393  and  _394
REMARK  156  A    between atoms: _396  and  _398
REMARK  157  A    between atoms: _398  and  _399
REMARK  158  A    between atoms: _401  and  _403
REMARK  159  A    between atoms: _403  and  _404
REMARK  160  A    between atoms: _407  and  _409
REMARK  161  A    between atoms: _409  and  _410
REMARK  162  A    between atoms: _412  and  _414
REMARK  163  A    between atoms: _414  and  _415
REMARK  164  A    between atoms: _414  and  _417
REMARK  165  A    between atoms: _417  and  _418
REMARK  166  A    between atoms: _423  and  _424
REMARK  167  A    between atoms: _426  and  _428
REMARK  168  A    between atoms: _428  and  _429
REMARK  169  A    between atoms: _428  and  _431
REMARK  170  A    between atoms: _431  and  _432
REMARK  171  A    between atoms: _435  and  _437
REMARK  172  A    between atoms: _437  and  _438
REMARK  173  A    between atoms: _440  and  _442
REMARK  174  A    between atoms: _442  and  _443
REMARK  175  A    between atoms: _442  and  _445
REMARK  176  A    between atoms: _445  and  _446
REMARK  177  A    between atoms: _446  and  _447
REMARK  178  A    between atoms: _452  and  _454
REMARK  179  A    between atoms: _454  and  _455
REMARK  180  A    between atoms: _454  and  _457
REMARK  181  A    between atoms: _457  and  _458
REMARK  182  A    between atoms: _461  and  _463
REMARK  183  A    between atoms: _463  and  _464
REMARK  184  A    between atoms: _463  and  _466
REMARK  185  A    between atoms: _466  and  _467
REMARK  186  A    between atoms: _467  and  _468
REMARK  187  A    between atoms: _473  and  _475
REMARK  188  A    between atoms: _475  and  _476
REMARK  189  A    between atoms: _475  and  _478
REMARK  190  A    between atoms: _478  and  _479
REMARK  191  A    between atoms: _482  and  _484
REMARK  192  A    between atoms: _484  and  _485
REMARK  193  A    between atoms: _484  and  _487
REMARK  194  A    between atoms: _487  and  _488
REMARK  195  A    between atoms: _488  and  _489
REMARK  196  A    between atoms: _489  and  _490
REMARK  197  A    between atoms: _499  and  _501
REMARK  198  A    between atoms: _501  and  _502
REMARK  199  A    between atoms: _501  and  _504
REMARK  200  A    between atoms: _504  and  _505
REMARK  201  A    between atoms: _507  and  _509
REMARK  202  A    between atoms: _509  and  _510
REMARK  203  A    between atoms: _513  and  _515
REMARK  204  A    between atoms: _515  and  _516
REMARK  205  A    between atoms: _515  and  _518
REMARK  206  A    between atoms: _518  and  _519
REMARK  207  A    between atoms: _522  and  _524
REMARK  208  A    between atoms: _524  and  _525
REMARK  209  A    between atoms: _527  and  _529
REMARK  210  A    between atoms: _529  and  _530
REMARK  211  A    between atoms: _529  and  _532
REMARK  212  A    between atoms: _532  and  _533
REMARK  213  A    between atoms: _538  and  _539
REMARK  214  A    between atoms: _541  and  _543
REMARK  215  A    between atoms: _543  and  _544
REMARK  216  A    between atoms: _543  and  _546
REMARK  217  A    between atoms: _546  and  _547
REMARK  218  A    between atoms: _550  and  _552
REMARK  219  A    between atoms: _552  and  _553
REMARK  220  A    between atoms: _555  and  _557
REMARK  221  A    between atoms: _557  and  _558
REMARK  222  A    between atoms: _557  and  _560
REMARK  223  A    between atoms: _560  and  _561
REMARK  224  A    between atoms: _566  and  _568
REMARK  225  A    between atoms: _568  and  _569
REMARK  226  A    between atoms: _568  and  _571
REMARK  227  A    between atoms: _571  and  _572
REMARK  228  A    between atoms: _575  and  _577
REMARK  229  A    between atoms: _577  and  _578
REMARK  230  A    between atoms: _577  and  _580
REMARK  231  A    between atoms: _580  and  _581
REMARK  232  A    between atoms: _587  and  _589
REMARK  233  A    between atoms: _589  and  _590
REMARK  234  A    between atoms: _589  and  _592
REMARK  235  A    between atoms: _592  and  _593
REMARK  236  A    between atoms: _593  and  _594
REMARK  237  A    between atoms: _594  and  _595
REMARK  238  A    between atoms: _604  and  _606
REMARK  239  A    between atoms: _606  and  _607
REMARK  240  A    between atoms: _606  and  _609
REMARK  241  A    between atoms: _609  and  _610
REMARK  242  A    between atoms: _612  and  _614
REMARK  243  A    between atoms: _614  and  _615
REMARK  244  A    between atoms: _617  and  _619
REMARK  245  A    between atoms: _619  and  _620
REMARK  246  A    between atoms: _619  and  _622
REMARK                            x       y       z     vdW  Elec       q    Type
REMARK                         _______ _______ _______ _____ _____    ______ ____
ROOT
ATOM      1  O   HOH     1      -2.365   5.194 -19.776  0.00  0.00    +0.000 OA
ENDROOT
TORSDOF 0
REMARK  Name = ../refined-set-2016/4xmb/4xmb_pocket.pdb
REMARK  246 active torsions:
REMARK  status: ('A' for Active; 'I' for Inactive)
REMARK    1  A    between atoms: _1  and  _3
REMARK    2  A    between atoms: _3  and  _4
REMARK    3  A    between atoms: _6  and  _8
REMARK    4  A    between atoms: _8  and  _9
REMARK    5  A    between atoms: _8  and  _11
REMARK    6  A    between atoms: _11  and  _12
REMARK    7  A    between atoms: _17  and  _18
REMARK    8  A    between atoms: _20  and  _22
REMARK    9  A    between atoms: _22  and  _23
REMARK   10  A    between atoms: _22  and  _25
REMARK   11  A    between atoms: _25  and  _26
REMARK   12  A    between atoms: _32  and  _34
REMARK   13  A    between atoms: _34  and  _35
REMARK   14  A    between atoms: _34  and  _37
REMARK   15  A    between atoms: _37  and  _38
REMARK   16  A    between atoms: _38  and  _39
REMARK   17  A    between atoms: _39  and  _40
REMARK   18  A    between atoms: _49  and  _51
REMARK   19  A    between atoms: _51  and  _52
REMARK   20  A    between atoms: _51  and  _54
REMARK   21  A    between atoms: _54  and  _55
REMARK   22  A    between atoms: _55  and  _56
REMARK   23  A    between atoms: _61  and  _63
REMARK   24  A    between atoms: _63  and  _64
REMARK   25  A    between atoms: _63  and  _66
REMARK   26  A    between atoms: _66  and  _67
REMARK   27  A    between atoms: _69  and  _71
REMARK   28  A    between atoms: _71  and  _72
REMARK   29  A    between atoms: _71  and  _74
REMARK   30  A    between atoms: _74  and  _75
REMARK   31  A    between atoms: _78  and  _80
REMARK   32  A    between atoms: _80  and  _81
REMARK   33  A    between atoms: _80  and  _83
REMARK   34  A    between atoms: _83  and  _84
REMARK   35  A    between atoms: _84  and  _85
REMARK   36  A    between atoms: _85  and  _86
REMARK   37  A    between atoms: _95  and  _97
REMARK   38  A    between atoms: _97  and  _98
REMARK   39  A    between atoms: _97  and  _100
REMARK   40  A    between atoms: _100  and  _101
REMARK   41  A    between atoms: _103  and  _105
REMARK   42  A    between atoms: _105  and  _106
REMARK   43  A    between atoms: _108  and  _110
REMARK   44  A    between atoms: _110  and  _111
REMARK   45  A    between atoms: _110  and  _113
REMARK   46  A    between atoms: _113  and  _114
REMARK   47  A    between atoms: _117  and  _119
REMARK   48  A    between atoms: _119  and  _120
REMARK   49  A    between atoms: _122  and  _124
REMARK   50  A    between atoms: _124  and  _125
REMARK   51  A    between atoms: _127  and  _129
REMARK   52  A    between atoms: _129  and  _130
REMARK   53  A    between atoms: _129  and  _132
REMARK   54  A    between atoms: _132  and  _133
REMARK   55  A    between atoms: _133  and  _134
REMARK   56  A    between atoms: _134  and  _135
REMARK   57  A    between atoms: _144  and  _146
REMARK   58  A    between atoms: _146  and  _147
REMARK   59  A    between atoms: _146  and  _149
REMARK   60  A    between atoms: _149  and  _150
REMARK   61  A    between atoms: _155  and  _157
REMARK   62  A    between atoms: _157  and  _158
REMARK   63  A    between atoms: _157  and  _160
REMARK   64  A    between atoms: _160  and  _161
REMARK   65  A    between atoms: _164  and  _166
REMARK   66  A    between atoms: _166  and  _167
REMARK   67  A    between atoms: _166  and  _169
REMARK   68  A    between atoms: _169  and  _170
REMARK   69  A    between atoms: _173  and  _175
REMARK   70  A    between atoms: _175  and  _176
REMARK   71  A    between atoms: _175  and  _178
REMARK   72  A    between atoms: _178  and  _179
REMARK   73  A    between atoms: _181  and  _183
REMARK   74  A    between atoms: _183  and  _184
REMARK   75  A    between atoms: _183  and  _186
REMARK   76  A    between atoms: _186  and  _187
REMARK   77  A    between atoms: _187  and  _188
REMARK   78  A    between atoms: _188  and  _189
REMARK   79  A    between atoms: _198  and  _200
REMARK   80  A    between atoms: _200  and  _201
REMARK   81  A    between atoms: _200  and  _203
REMARK   82  A    between atoms: _203  and  _204
REMARK   83  A    between atoms: _209  and  _211
REMARK   84  A    between atoms: _211  and  _212
REMARK   85  A    between atoms: _211  and  _214
REMARK   86  A    between atoms: _214  and  _215
REMARK   87  A    between atoms: _215  and  _216
REMARK   88  A    between atoms: _216  and  _217
REMARK   89  A    between atoms: _226  and  _228
REMARK   90  A    between atoms: _228  and  _229
REMARK   91  A    between atoms: _228  and  _231
REMARK   92  A    between atoms: _231  and  _232
REMARK   93  A    between atoms: _235  and  _237
REMARK   94  A    between atoms: _237  and  _238
REMARK   95  A    between atoms: _240  and  _242
REMARK   96  A    between atoms: _242  and  _243
REMARK   97  A    between atoms: _242  and  _245
REMARK   98  A    between atoms: _245  and  _246
REMARK   99  A    between atoms: _248  and  _250
REMARK  100  A    between atoms: _250  and  _251
REMARK  101  A    between atoms: _250  and  _253
REMARK  102  A    between atoms: _253  and  _254
REMARK  103  A    between atoms: _259  and  _261
REMARK  104  A    between atoms: _261  and  _262
REMARK  105  A    between atoms: _261  and  _264
REMARK  106  A    between atoms: _264  and  _265
REMARK  107  A    between atoms: _265  and  _266
REMARK  108  A    between atoms: _266  and  _267
REMARK  109  A    between atoms: _276  and  _278
REMARK  110  A    between atoms: _278  and  _279
REMARK  111  A    between atoms: _278  and  _281
REMARK  112  A    between atoms: _281  and  _282
REMARK  113  A    between atoms: _285  and  _287
REMARK  114  A    between atoms: _287  and  _288
REMARK  115  A    between atoms: _290  and  _292
REMARK  116  A    between atoms: _292  and  _293
REMARK  117  A    between atoms: _292  and  _295
REMARK  118  A    between atoms: _298  and  _300
REMARK  119  A    between atoms: _300  and  _301
REMARK  120  A    between atoms: _303  and  _305
REMARK  121  A    between atoms: _305  and  _306
REMARK  122  A    between atoms: _308  and  _310
REMARK  123  A    between atoms: _310  and  _311
REMARK  124  A    between atoms: _310  and  _313
REMARK  125  A    between atoms: _313  and  _314
REMARK  126  A    between atoms: _320  and  _322
REMARK  127  A    between atoms: _322  and  _323
REMARK  128  A    between atoms: _322  and  _325
REMARK  129  A    between atoms: _325  and  _326
REMARK  130  A    between atoms: _329  and  _331
REMARK  131  A    between atoms: _331  and  _332
REMARK  132  A    between atoms: _334  and  _336
REMARK  133  A    between atoms: _336  and  _337
REMARK  134  A    between atoms: _336  and  _339
REMARK  135  A    between atoms: _339  and  _340
REMARK  136  A    between atoms: _345  and  _347
REMARK  137  A    between atoms: _347  and  _348
REMARK  138  A    between atoms: _347  and  _350
REMARK  139  A    between atoms: _350  and  _351
REMARK  140  A    between atoms: _351  and  _352
REMARK  141  A    between atoms: _352  and  _353
REMARK  142  A    between atoms: _362  and  _364
REMARK  143  A    between atoms: _364  and  _365
REMARK  144  A    between atoms: _364  and  _367
REMARK  145  A    between atoms: _367  and  _368
REMARK  146  A    between atoms: _371  and  _373
REMARK  147  A    between atoms: _373  and  _374
REMARK  148  A    between atoms: _373  and  _376
REMARK  149  A    between atoms: _376  and  _377
REMARK  150  A    between atoms: _377  and  _378
REMARK  151  A    between atoms: _378  and  _379
REMARK  152  A    between atoms: _388  and  _390
REMARK  153  A    between atoms: _390  and  _391
REMARK  154  A    between atoms: _390  and  _393
REMARK  155  A    between atoms: _393  and  _394
REMARK  156  A    between atoms: _396  and  _398
REMARK  157  A    between atoms: _398  and  _399
REMARK  158  A    between atoms: _401  and  _403
REMARK  159  A    between atoms: _403  and  _404
REMARK  160  A    between atoms: _407  and  _409
REMARK  161  A    between atoms: _409  and  _410
REMARK  162  A    between atoms: _412  and  _414
REMARK  163  A    between atoms: _414  and  _415
REMARK  164  A    between atoms: _414  and  _417
REMARK  165  A    between atoms: _417  and  _418
REMARK  166  A    between atoms: _423  and  _424
REMARK  167  A    between atoms: _426  and  _428
REMARK  168  A    between atoms: _428  and  _429
REMARK  169  A    between atoms: _428  and  _431
REMARK  170  A    between atoms: _431  and  _432
REMARK  171  A    between atoms: _435  and  _437
REMARK  172  A    between atoms: _437  and  _438
REMARK  173  A    between atoms: _440  and  _442
REMARK  174  A    between atoms: _442  and  _443
REMARK  175  A    between atoms: _442  and  _445
REMARK  176  A    between atoms: _445  and  _446
REMARK  177  A    between atoms: _446  and  _447
REMARK  178  A    between atoms: _452  and  _454
REMARK  179  A    between atoms: _454  and  _455
REMARK  180  A    between atoms: _454  and  _457
REMARK  181  A    between atoms: _457  and  _458
REMARK  182  A    between atoms: _461  and  _463
REMARK  183  A    between atoms: _463  and  _464
REMARK  184  A    between atoms: _463  and  _466
REMARK  185  A    between atoms: _466  and  _467
REMARK  186  A    between atoms: _467  and  _468
REMARK  187  A    between atoms: _473  and  _475
REMARK  188  A    between atoms: _475  and  _476
REMARK  189  A    between atoms: _475  and  _478
REMARK  190  A    between atoms: _478  and  _479
REMARK  191  A    between atoms: _482  and  _484
REMARK  192  A    between atoms: _484  and  _485
REMARK  193  A    between atoms: _484  and  _487
REMARK  194  A    between atoms: _487  and  _488
REMARK  195  A    between atoms: _488  and  _489
REMARK  196  A    between atoms: _489  and  _490
REMARK  197  A    between atoms: _499  and  _501
REMARK  198  A    between atoms: _501  and  _502
REMARK  199  A    between atoms: _501  and  _504
REMARK  200  A    between atoms: _504  and  _505
REMARK  201  A    between atoms: _507  and  _509
REMARK  202  A    between atoms: _509  and  _510
REMARK  203  A    between atoms: _513  and  _515
REMARK  204  A    between atoms: _515  and  _516
REMARK  205  A    between atoms: _515  and  _518
REMARK  206  A    between atoms: _518  and  _519
REMARK  207  A    between atoms: _522  and  _524
REMARK  208  A    between atoms: _524  and  _525
REMARK  209  A    between atoms: _527  and  _529
REMARK  210  A    between atoms: _529  and  _530
REMARK  211  A    between atoms: _529  and  _532
REMARK  212  A    between atoms: _532  and  _533
REMARK  213  A    between atoms: _538  and  _539
REMARK  214  A    between atoms: _541  and  _543
REMARK  215  A    between atoms: _543  and  _544
REMARK  216  A    between atoms: _543  and  _546
REMARK  217  A    between atoms: _546  and  _547
REMARK  218  A    between atoms: _550  and  _552
REMARK  219  A    between atoms: _552  and  _553
REMARK  220  A    between atoms: _555  and  _557
REMARK  221  A    between atoms: _557  and  _558
REMARK  222  A    between atoms: _557  and  _560
REMARK  223  A    between atoms: _560  and  _561
REMARK  224  A    between atoms: _566  and  _568
REMARK  225  A    between atoms: _568  and  _569
REMARK  226  A    between atoms: _568  and  _571
REMARK  227  A    between atoms: _571  and  _572
REMARK  228  A    between atoms: _575  and  _577
REMARK  229  A    between atoms: _577  and  _578
REMARK  230  A    between atoms: _577  and  _580
REMARK  231  A    between atoms: _580  and  _581
REMARK  232  A    between atoms: _587  and  _589
REMARK  233  A    between atoms: _589  and  _590
REMARK  234  A    between atoms: _589  and  _592
REMARK  235  A    between atoms: _592  and  _593
REMARK  236  A    between atoms: _593  and  _594
REMARK  237  A    between atoms: _594  and  _595
REMARK  238  A    between atoms: _604  and  _606
REMARK  239  A    between atoms: _606  and  _607
REMARK  240  A    between atoms: _606  and  _609
REMARK  241  A    between atoms: _609  and  _610
REMARK  242  A    between atoms: _612  and  _614
REMARK  243  A    between atoms: _614  and  _615
REMARK  244  A    between atoms: _617  and  _619
REMARK  245  A    between atoms: _619  and  _620
REMARK  246  A    between atoms: _619  and  _622
REMARK                            x       y       z     vdW  Elec       q    Type
REMARK                         _______ _______ _______ _____ _____    ______ ____
ROOT
ATOM      1  O   HOH     1      -1.098   4.354 -17.527  0.00  0.00    +0.000 OA
ENDROOT
TORSDOF 0
REMARK  Name = ../refined-set-2016/4xmb/4xmb_pocket.pdb
REMARK  246 active torsions:
REMARK  status: ('A' for Active; 'I' for Inactive)
REMARK    1  A    between atoms: _1  and  _3
REMARK    2  A    between atoms: _3  and  _4
REMARK    3  A    between atoms: _6  and  _8
REMARK    4  A    between atoms: _8  and  _9
REMARK    5  A    between atoms: _8  and  _11
REMARK    6  A    between atoms: _11  and  _12
REMARK    7  A    between atoms: _17  and  _18
REMARK    8  A    between atoms: _20  and  _22
REMARK    9  A    between atoms: _22  and  _23
REMARK   10  A    between atoms: _22  and  _25
REMARK   11  A    between atoms: _25  and  _26
REMARK   12  A    between atoms: _32  and  _34
REMARK   13  A    between atoms: _34  and  _35
REMARK   14  A    between atoms: _34  and  _37
REMARK   15  A    between atoms: _37  and  _38
REMARK   16  A    between atoms: _38  and  _39
REMARK   17  A    between atoms: _39  and  _40
REMARK   18  A    between atoms: _49  and  _51
REMARK   19  A    between atoms: _51  and  _52
REMARK   20  A    between atoms: _51  and  _54
REMARK   21  A    between atoms: _54  and  _55
REMARK   22  A    between atoms: _55  and  _56
REMARK   23  A    between atoms: _61  and  _63
REMARK   24  A    between atoms: _63  and  _64
REMARK   25  A    between atoms: _63  and  _66
REMARK   26  A    between atoms: _66  and  _67
REMARK   27  A    between atoms: _69  and  _71
REMARK   28  A    between atoms: _71  and  _72
REMARK   29  A    between atoms: _71  and  _74
REMARK   30  A    between atoms: _74  and  _75
REMARK   31  A    between atoms: _78  and  _80
REMARK   32  A    between atoms: _80  and  _81
REMARK   33  A    between atoms: _80  and  _83
REMARK   34  A    between atoms: _83  and  _84
REMARK   35  A    between atoms: _84  and  _85
REMARK   36  A    between atoms: _85  and  _86
REMARK   37  A    between atoms: _95  and  _97
REMARK   38  A    between atoms: _97  and  _98
REMARK   39  A    between atoms: _97  and  _100
REMARK   40  A    between atoms: _100  and  _101
REMARK   41  A    between atoms: _103  and  _105
REMARK   42  A    between atoms: _105  and  _106
REMARK   43  A    between atoms: _108  and  _110
REMARK   44  A    between atoms: _110  and  _111
REMARK   45  A    between atoms: _110  and  _113
REMARK   46  A    between atoms: _113  and  _114
REMARK   47  A    between atoms: _117  and  _119
REMARK   48  A    between atoms: _119  and  _120
REMARK   49  A    between atoms: _122  and  _124
REMARK   50  A    between atoms: _124  and  _125
REMARK   51  A    between atoms: _127  and  _129
REMARK   52  A    between atoms: _129  and  _130
REMARK   53  A    between atoms: _129  and  _132
REMARK   54  A    between atoms: _132  and  _133
REMARK   55  A    between atoms: _133  and  _134
REMARK   56  A    between atoms: _134  and  _135
REMARK   57  A    between atoms: _144  and  _146
REMARK   58  A    between atoms: _146  and  _147
REMARK   59  A    between atoms: _146  and  _149
REMARK   60  A    between atoms: _149  and  _150
REMARK   61  A    between atoms: _155  and  _157
REMARK   62  A    between atoms: _157  and  _158
REMARK   63  A    between atoms: _157  and  _160
REMARK   64  A    between atoms: _160  and  _161
REMARK   65  A    between atoms: _164  and  _166
REMARK   66  A    between atoms: _166  and  _167
REMARK   67  A    between atoms: _166  and  _169
REMARK   68  A    between atoms: _169  and  _170
REMARK   69  A    between atoms: _173  and  _175
REMARK   70  A    between atoms: _175  and  _176
REMARK   71  A    between atoms: _175  and  _178
REMARK   72  A    between atoms: _178  and  _179
REMARK   73  A    between atoms: _181  and  _183
REMARK   74  A    between atoms: _183  and  _184
REMARK   75  A    between atoms: _183  and  _186
REMARK   76  A    between atoms: _186  and  _187
REMARK   77  A    between atoms: _187  and  _188
REMARK   78  A    between atoms: _188  and  _189
REMARK   79  A    between atoms: _198  and  _200
REMARK   80  A    between atoms: _200  and  _201
REMARK   81  A    between atoms: _200  and  _203
REMARK   82  A    between atoms: _203  and  _204
REMARK   83  A    between atoms: _209  and  _211
REMARK   84  A    between atoms: _211  and  _212
REMARK   85  A    between atoms: _211  and  _214
REMARK   86  A    between atoms: _214  and  _215
REMARK   87  A    between atoms: _215  and  _216
REMARK   88  A    between atoms: _216  and  _217
REMARK   89  A    between atoms: _226  and  _228
REMARK   90  A    between atoms: _228  and  _229
REMARK   91  A    between atoms: _228  and  _231
REMARK   92  A    between atoms: _231  and  _232
REMARK   93  A    between atoms: _235  and  _237
REMARK   94  A    between atoms: _237  and  _238
REMARK   95  A    between atoms: _240  and  _242
REMARK   96  A    between atoms: _242  and  _243
REMARK   97  A    between atoms: _242  and  _245
REMARK   98  A    between atoms: _245  and  _246
REMARK   99  A    between atoms: _248  and  _250
REMARK  100  A    between atoms: _250  and  _251
REMARK  101  A    between atoms: _250  and  _253
REMARK  102  A    between atoms: _253  and  _254
REMARK  103  A    between atoms: _259  and  _261
REMARK  104  A    between atoms: _261  and  _262
REMARK  105  A    between atoms: _261  and  _264
REMARK  106  A    between atoms: _264  and  _265
REMARK  107  A    between atoms: _265  and  _266
REMARK  108  A    between atoms: _266  and  _267
REMARK  109  A    between atoms: _276  and  _278
REMARK  110  A    between atoms: _278  and  _279
REMARK  111  A    between atoms: _278  and  _281
REMARK  112  A    between atoms: _281  and  _282
REMARK  113  A    between atoms: _285  and  _287
REMARK  114  A    between atoms: _287  and  _288
REMARK  115  A    between atoms: _290  and  _292
REMARK  116  A    between atoms: _292  and  _293
REMARK  117  A    between atoms: _292  and  _295
REMARK  118  A    between atoms: _298  and  _300
REMARK  119  A    between atoms: _300  and  _301
REMARK  120  A    between atoms: _303  and  _305
REMARK  121  A    between atoms: _305  and  _306
REMARK  122  A    between atoms: _308  and  _310
REMARK  123  A    between atoms: _310  and  _311
REMARK  124  A    between atoms: _310  and  _313
REMARK  125  A    between atoms: _313  and  _314
REMARK  126  A    between atoms: _320  and  _322
REMARK  127  A    between atoms: _322  and  _323
REMARK  128  A    between atoms: _322  and  _325
REMARK  129  A    between atoms: _325  and  _326
REMARK  130  A    between atoms: _329  and  _331
REMARK  131  A    between atoms: _331  and  _332
REMARK  132  A    between atoms: _334  and  _336
REMARK  133  A    between atoms: _336  and  _337
REMARK  134  A    between atoms: _336  and  _339
REMARK  135  A    between atoms: _339  and  _340
REMARK  136  A    between atoms: _345  and  _347
REMARK  137  A    between atoms: _347  and  _348
REMARK  138  A    between atoms: _347  and  _350
REMARK  139  A    between atoms: _350  and  _351
REMARK  140  A    between atoms: _351  and  _352
REMARK  141  A    between atoms: _352  and  _353
REMARK  142  A    between atoms: _362  and  _364
REMARK  143  A    between atoms: _364  and  _365
REMARK  144  A    between atoms: _364  and  _367
REMARK  145  A    between atoms: _367  and  _368
REMARK  146  A    between atoms: _371  and  _373
REMARK  147  A    between atoms: _373  and  _374
REMARK  148  A    between atoms: _373  and  _376
REMARK  149  A    between atoms: _376  and  _377
REMARK  150  A    between atoms: _377  and  _378
REMARK  151  A    between atoms: _378  and  _379
REMARK  152  A    between atoms: _388  and  _390
REMARK  153  A    between atoms: _390  and  _391
REMARK  154  A    between atoms: _390  and  _393
REMARK  155  A    between atoms: _393  and  _394
REMARK  156  A    between atoms: _396  and  _398
REMARK  157  A    between atoms: _398  and  _399
REMARK  158  A    between atoms: _401  and  _403
REMARK  159  A    between atoms: _403  and  _404
REMARK  160  A    between atoms: _407  and  _409
REMARK  161  A    between atoms: _409  and  _410
REMARK  162  A    between atoms: _412  and  _414
REMARK  163  A    between atoms: _414  and  _415
REMARK  164  A    between atoms: _414  and  _417
REMARK  165  A    between atoms: _417  and  _418
REMARK  166  A    between atoms: _423  and  _424
REMARK  167  A    between atoms: _426  and  _428
REMARK  168  A    between atoms: _428  and  _429
REMARK  169  A    between atoms: _428  and  _431
REMARK  170  A    between atoms: _431  and  _432
REMARK  171  A    between atoms: _435  and  _437
REMARK  172  A    between atoms: _437  and  _438
REMARK  173  A    between atoms: _440  and  _442
REMARK  174  A    between atoms: _442  and  _443
REMARK  175  A    between atoms: _442  and  _445
REMARK  176  A    between atoms: _445  and  _446
REMARK  177  A    between atoms: _446  and  _447
REMARK  178  A    between atoms: _452  and  _454
REMARK  179  A    between atoms: _454  and  _455
REMARK  180  A    between atoms: _454  and  _457
REMARK  181  A    between atoms: _457  and  _458
REMARK  182  A    between atoms: _461  and  _463
REMARK  183  A    between atoms: _463  and  _464
REMARK  184  A    between atoms: _463  and  _466
REMARK  185  A    between atoms: _466  and  _467
REMARK  186  A    between atoms: _467  and  _468
REMARK  187  A    between atoms: _473  and  _475
REMARK  188  A    between atoms: _475  and  _476
REMARK  189  A    between atoms: _475  and  _478
REMARK  190  A    between atoms: _478  and  _479
REMARK  191  A    between atoms: _482  and  _484
REMARK  192  A    between atoms: _484  and  _485
REMARK  193  A    between atoms: _484  and  _487
REMARK  194  A    between atoms: _487  and  _488
REMARK  195  A    between atoms: _488  and  _489
REMARK  196  A    between atoms: _489  and  _490
REMARK  197  A    between atoms: _499  and  _501
REMARK  198  A    between atoms: _501  and  _502
REMARK  199  A    between atoms: _501  and  _504
REMARK  200  A    between atoms: _504  and  _505
REMARK  201  A    between atoms: _507  and  _509
REMARK  202  A    between atoms: _509  and  _510
REMARK  203  A    between atoms: _513  and  _515
REMARK  204  A    between atoms: _515  and  _516
REMARK  205  A    between atoms: _515  and  _518
REMARK  206  A    between atoms: _518  and  _519
REMARK  207  A    between atoms: _522  and  _524
REMARK  208  A    between atoms: _524  and  _525
REMARK  209  A    between atoms: _527  and  _529
REMARK  210  A    between atoms: _529  and  _530
REMARK  211  A    between atoms: _529  and  _532
REMARK  212  A    between atoms: _532  and  _533
REMARK  213  A    between atoms: _538  and  _539
REMARK  214  A    between atoms: _541  and  _543
REMARK  215  A    between atoms: _543  and  _544
REMARK  216  A    between atoms: _543  and  _546
REMARK  217  A    between atoms: _546  and  _547
REMARK  218  A    between atoms: _550  and  _552
REMARK  219  A    between atoms: _552  and  _553
REMARK  220  A    between atoms: _555  and  _557
REMARK  221  A    between atoms: _557  and  _558
REMARK  222  A    between atoms: _557  and  _560
REMARK  223  A    between atoms: _560  and  _561
REMARK  224  A    between atoms: _566  and  _568
REMARK  225  A    between atoms: _568  and  _569
REMARK  226  A    between atoms: _568  and  _571
REMARK  227  A    between atoms: _571  and  _572
REMARK  228  A    between atoms: _575  and  _577
REMARK  229  A    between atoms: _577  and  _578
REMARK  230  A    between atoms: _577  and  _580
REMARK  231  A    between atoms: _580  and  _581
REMARK  232  A    between atoms: _587  and  _589
REMARK  233  A    between atoms: _589  and  _590
REMARK  234  A    between atoms: _589  and  _592
REMARK  235  A    between atoms: _592  and  _593
REMARK  236  A    between atoms: _593  and  _594
REMARK  237  A    between atoms: _594  and  _595
REMARK  238  A    between atoms: _604  and  _606
REMARK  239  A    between atoms: _606  and  _607
REMARK  240  A    between atoms: _606  and  _609
REMARK  241  A    between atoms: _609  and  _610
REMARK  242  A    between atoms: _612  and  _614
REMARK  243  A    between atoms: _614  and  _615
REMARK  244  A    between atoms: _617  and  _619
REMARK  245  A    between atoms: _619  and  _620
REMARK  246  A    between atoms: _619  and  _622
REMARK                            x       y       z     vdW  Elec       q    Type
REMARK                         _______ _______ _______ _____ _____    ______ ____
ROOT
ATOM      1  O   HOH     1      -1.401   1.826 -16.735  0.00  0.00    +0.000 OA
ENDROOT
TORSDOF 0
REMARK  Name = ../refined-set-2016/4xmb/4xmb_pocket.pdb
REMARK  246 active torsions:
REMARK  status: ('A' for Active; 'I' for Inactive)
REMARK    1  A    between atoms: _1  and  _3
REMARK    2  A    between atoms: _3  and  _4
REMARK    3  A    between atoms: _6  and  _8
REMARK    4  A    between atoms: _8  and  _9
REMARK    5  A    between atoms: _8  and  _11
REMARK    6  A    between atoms: _11  and  _12
REMARK    7  A    between atoms: _17  and  _18
REMARK    8  A    between atoms: _20  and  _22
REMARK    9  A    between atoms: _22  and  _23
REMARK   10  A    between atoms: _22  and  _25
REMARK   11  A    between atoms: _25  and  _26
REMARK   12  A    between atoms: _32  and  _34
REMARK   13  A    between atoms: _34  and  _35
REMARK   14  A    between atoms: _34  and  _37
REMARK   15  A    between atoms: _37  and  _38
REMARK   16  A    between atoms: _38  and  _39
REMARK   17  A    between atoms: _39  and  _40
REMARK   18  A    between atoms: _49  and  _51
REMARK   19  A    between atoms: _51  and  _52
REMARK   20  A    between atoms: _51  and  _54
REMARK   21  A    between atoms: _54  and  _55
REMARK   22  A    between atoms: _55  and  _56
REMARK   23  A    between atoms: _61  and  _63
REMARK   24  A    between atoms: _63  and  _64
REMARK   25  A    between atoms: _63  and  _66
REMARK   26  A    between atoms: _66  and  _67
REMARK   27  A    between atoms: _69  and  _71
REMARK   28  A    between atoms: _71  and  _72
REMARK   29  A    between atoms: _71  and  _74
REMARK   30  A    between atoms: _74  and  _75
REMARK   31  A    between atoms: _78  and  _80
REMARK   32  A    between atoms: _80  and  _81
REMARK   33  A    between atoms: _80  and  _83
REMARK   34  A    between atoms: _83  and  _84
REMARK   35  A    between atoms: _84  and  _85
REMARK   36  A    between atoms: _85  and  _86
REMARK   37  A    between atoms: _95  and  _97
REMARK   38  A    between atoms: _97  and  _98
REMARK   39  A    between atoms: _97  and  _100
REMARK   40  A    between atoms: _100  and  _101
REMARK   41  A    between atoms: _103  and  _105
REMARK   42  A    between atoms: _105  and  _106
REMARK   43  A    between atoms: _108  and  _110
REMARK   44  A    between atoms: _110  and  _111
REMARK   45  A    between atoms: _110  and  _113
REMARK   46  A    between atoms: _113  and  _114
REMARK   47  A    between atoms: _117  and  _119
REMARK   48  A    between atoms: _119  and  _120
REMARK   49  A    between atoms: _122  and  _124
REMARK   50  A    between atoms: _124  and  _125
REMARK   51  A    between atoms: _127  and  _129
REMARK   52  A    between atoms: _129  and  _130
REMARK   53  A    between atoms: _129  and  _132
REMARK   54  A    between atoms: _132  and  _133
REMARK   55  A    between atoms: _133  and  _134
REMARK   56  A    between atoms: _134  and  _135
REMARK   57  A    between atoms: _144  and  _146
REMARK   58  A    between atoms: _146  and  _147
REMARK   59  A    between atoms: _146  and  _149
REMARK   60  A    between atoms: _149  and  _150
REMARK   61  A    between atoms: _155  and  _157
REMARK   62  A    between atoms: _157  and  _158
REMARK   63  A    between atoms: _157  and  _160
REMARK   64  A    between atoms: _160  and  _161
REMARK   65  A    between atoms: _164  and  _166
REMARK   66  A    between atoms: _166  and  _167
REMARK   67  A    between atoms: _166  and  _169
REMARK   68  A    between atoms: _169  and  _170
REMARK   69  A    between atoms: _173  and  _175
REMARK   70  A    between atoms: _175  and  _176
REMARK   71  A    between atoms: _175  and  _178
REMARK   72  A    between atoms: _178  and  _179
REMARK   73  A    between atoms: _181  and  _183
REMARK   74  A    between atoms: _183  and  _184
REMARK   75  A    between atoms: _183  and  _186
REMARK   76  A    between atoms: _186  and  _187
REMARK   77  A    between atoms: _187  and  _188
REMARK   78  A    between atoms: _188  and  _189
REMARK   79  A    between atoms: _198  and  _200
REMARK   80  A    between atoms: _200  and  _201
REMARK   81  A    between atoms: _200  and  _203
REMARK   82  A    between atoms: _203  and  _204
REMARK   83  A    between atoms: _209  and  _211
REMARK   84  A    between atoms: _211  and  _212
REMARK   85  A    between atoms: _211  and  _214
REMARK   86  A    between atoms: _214  and  _215
REMARK   87  A    between atoms: _215  and  _216
REMARK   88  A    between atoms: _216  and  _217
REMARK   89  A    between atoms: _226  and  _228
REMARK   90  A    between atoms: _228  and  _229
REMARK   91  A    between atoms: _228  and  _231
REMARK   92  A    between atoms: _231  and  _232
REMARK   93  A    between atoms: _235  and  _237
REMARK   94  A    between atoms: _237  and  _238
REMARK   95  A    between atoms: _240  and  _242
REMARK   96  A    between atoms: _242  and  _243
REMARK   97  A    between atoms: _242  and  _245
REMARK   98  A    between atoms: _245  and  _246
REMARK   99  A    between atoms: _248  and  _250
REMARK  100  A    between atoms: _250  and  _251
REMARK  101  A    between atoms: _250  and  _253
REMARK  102  A    between atoms: _253  and  _254
REMARK  103  A    between atoms: _259  and  _261
REMARK  104  A    between atoms: _261  and  _262
REMARK  105  A    between atoms: _261  and  _264
REMARK  106  A    between atoms: _264  and  _265
REMARK  107  A    between atoms: _265  and  _266
REMARK  108  A    between atoms: _266  and  _267
REMARK  109  A    between atoms: _276  and  _278
REMARK  110  A    between atoms: _278  and  _279
REMARK  111  A    between atoms: _278  and  _281
REMARK  112  A    between atoms: _281  and  _282
REMARK  113  A    between atoms: _285  and  _287
REMARK  114  A    between atoms: _287  and  _288
REMARK  115  A    between atoms: _290  and  _292
REMARK  116  A    between atoms: _292  and  _293
REMARK  117  A    between atoms: _292  and  _295
REMARK  118  A    between atoms: _298  and  _300
REMARK  119  A    between atoms: _300  and  _301
REMARK  120  A    between atoms: _303  and  _305
REMARK  121  A    between atoms: _305  and  _306
REMARK  122  A    between atoms: _308  and  _310
REMARK  123  A    between atoms: _310  and  _311
REMARK  124  A    between atoms: _310  and  _313
REMARK  125  A    between atoms: _313  and  _314
REMARK  126  A    between atoms: _320  and  _322
REMARK  127  A    between atoms: _322  and  _323
REMARK  128  A    between atoms: _322  and  _325
REMARK  129  A    between atoms: _325  and  _326
REMARK  130  A    between atoms: _329  and  _331
REMARK  131  A    between atoms: _331  and  _332
REMARK  132  A    between atoms: _334  and  _336
REMARK  133  A    between atoms: _336  and  _337
REMARK  134  A    between atoms: _336  and  _339
REMARK  135  A    between atoms: _339  and  _340
REMARK  136  A    between atoms: _345  and  _347
REMARK  137  A    between atoms: _347  and  _348
REMARK  138  A    between atoms: _347  and  _350
REMARK  139  A    between atoms: _350  and  _351
REMARK  140  A    between atoms: _351  and  _352
REMARK  141  A    between atoms: _352  and  _353
REMARK  142  A    between atoms: _362  and  _364
REMARK  143  A    between atoms: _364  and  _365
REMARK  144  A    between atoms: _364  and  _367
REMARK  145  A    between atoms: _367  and  _368
REMARK  146  A    between atoms: _371  and  _373
REMARK  147  A    between atoms: _373  and  _374
REMARK  148  A    between atoms: _373  and  _376
REMARK  149  A    between atoms: _376  and  _377
REMARK  150  A    between atoms: _377  and  _378
REMARK  151  A    between atoms: _378  and  _379
REMARK  152  A    between atoms: _388  and  _390
REMARK  153  A    between atoms: _390  and  _391
REMARK  154  A    between atoms: _390  and  _393
REMARK  155  A    between atoms: _393  and  _394
REMARK  156  A    between atoms: _396  and  _398
REMARK  157  A    between atoms: _398  and  _399
REMARK  158  A    between atoms: _401  and  _403
REMARK  159  A    between atoms: _403  and  _404
REMARK  160  A    between atoms: _407  and  _409
REMARK  161  A    between atoms: _409  and  _410
REMARK  162  A    between atoms: _412  and  _414
REMARK  163  A    between atoms: _414  and  _415
REMARK  164  A    between atoms: _414  and  _417
REMARK  165  A    between atoms: _417  and  _418
REMARK  166  A    between atoms: _423  and  _424
REMARK  167  A    between atoms: _426  and  _428
REMARK  168  A    between atoms: _428  and  _429
REMARK  169  A    between atoms: _428  and  _431
REMARK  170  A    between atoms: _431  and  _432
REMARK  171  A    between atoms: _435  and  _437
REMARK  172  A    between atoms: _437  and  _438
REMARK  173  A    between atoms: _440  and  _442
REMARK  174  A    between atoms: _442  and  _443
REMARK  175  A    between atoms: _442  and  _445
REMARK  176  A    between atoms: _445  and  _446
REMARK  177  A    between atoms: _446  and  _447
REMARK  178  A    between atoms: _452  and  _454
REMARK  179  A    between atoms: _454  and  _455
REMARK  180  A    between atoms: _454  and  _457
REMARK  181  A    between atoms: _457  and  _458
REMARK  182  A    between atoms: _461  and  _463
REMARK  183  A    between atoms: _463  and  _464
REMARK  184  A    between atoms: _463  and  _466
REMARK  185  A    between atoms: _466  and  _467
REMARK  186  A    between atoms: _467  and  _468
REMARK  187  A    between atoms: _473  and  _475
REMARK  188  A    between atoms: _475  and  _476
REMARK  189  A    between atoms: _475  and  _478
REMARK  190  A    between atoms: _478  and  _479
REMARK  191  A    between atoms: _482  and  _484
REMARK  192  A    between atoms: _484  and  _485
REMARK  193  A    between atoms: _484  and  _487
REMARK  194  A    between atoms: _487  and  _488
REMARK  195  A    between atoms: _488  and  _489
REMARK  196  A    between atoms: _489  and  _490
REMARK  197  A    between atoms: _499  and  _501
REMARK  198  A    between atoms: _501  and  _502
REMARK  199  A    between atoms: _501  and  _504
REMARK  200  A    between atoms: _504  and  _505
REMARK  201  A    between atoms: _507  and  _509
REMARK  202  A    between atoms: _509  and  _510
REMARK  203  A    between atoms: _513  and  _515
REMARK  204  A    between atoms: _515  and  _516
REMARK  205  A    between atoms: _515  and  _518
REMARK  206  A    between atoms: _518  and  _519
REMARK  207  A    between atoms: _522  and  _524
REMARK  208  A    between atoms: _524  and  _525
REMARK  209  A    between atoms: _527  and  _529
REMARK  210  A    between atoms: _529  and  _530
REMARK  211  A    between atoms: _529  and  _532
REMARK  212  A    between atoms: _532  and  _533
REMARK  213  A    between atoms: _538  and  _539
REMARK  214  A    between atoms: _541  and  _543
REMARK  215  A    between atoms: _543  and  _544
REMARK  216  A    between atoms: _543  and  _546
REMARK  217  A    between atoms: _546  and  _547
REMARK  218  A    between atoms: _550  and  _552
REMARK  219  A    between atoms: _552  and  _553
REMARK  220  A    between atoms: _555  and  _557
REMARK  221  A    between atoms: _557  and  _558
REMARK  222  A    between atoms: _557  and  _560
REMARK  223  A    between atoms: _560  and  _561
REMARK  224  A    between atoms: _566  and  _568
REMARK  225  A    between atoms: _568  and  _569
REMARK  226  A    between atoms: _568  and  _571
REMARK  227  A    between atoms: _571  and  _572
REMARK  228  A    between atoms: _575  and  _577
REMARK  229  A    between atoms: _577  and  _578
REMARK  230  A    between atoms: _577  and  _580
REMARK  231  A    between atoms: _580  and  _581
REMARK  232  A    between atoms: _587  and  _589
REMARK  233  A    between atoms: _589  and  _590
REMARK  234  A    between atoms: _589  and  _592
REMARK  235  A    between atoms: _592  and  _593
REMARK  236  A    between atoms: _593  and  _594
REMARK  237  A    between atoms: _594  and  _595
REMARK  238  A    between atoms: _604  and  _606
REMARK  239  A    between atoms: _606  and  _607
REMARK  240  A    between atoms: _606  and  _609
REMARK  241  A    between atoms: _609  and  _610
REMARK  242  A    between atoms: _612  and  _614
REMARK  243  A    between atoms: _614  and  _615
REMARK  244  A    between atoms: _617  and  _619
REMARK  245  A    between atoms: _619  and  _620
REMARK  246  A    between atoms: _619  and  _622
REMARK                            x       y       z     vdW  Elec       q    Type
REMARK                         _______ _______ _______ _____ _____    ______ ____
ROOT
ATOM      1  O   HOH     1      -1.928   8.204 -23.034  0.00  0.00    +0.000 OA
ENDROOT
TORSDOF 0
