REMARK  Name = ../refined-set-2016/4nja/4nja_pocket.pdb
REMARK  90 active torsions:
REMARK  status: ('A' for Active; 'I' for Inactive)
REMARK    1  A    between atoms: _1  and  _3
REMARK    2  A    between atoms: _3  and  _4
REMARK    3  A    between atoms: _3  and  _6
REMARK    4  A    between atoms: _6  and  _7
REMARK    5  A    between atoms: _9  and  _11
REMARK    6  A    between atoms: _11  and  _12
REMARK    7  A    between atoms: _11  and  _14
REMARK    8  A    between atoms: _14  and  _15
REMARK    9  A    between atoms: _20  and  _21
REMARK   10  A    between atoms: _23  and  _25
REMARK   11  A    between atoms: _25  and  _26
REMARK   12  A    between atoms: _28  and  _30
REMARK   13  A    between atoms: _30  and  _31
REMARK   14  A    between atoms: _30  and  _33
REMARK   15  A    between atoms: _33  and  _34
REMARK   16  A    between atoms: _39  and  _41
REMARK   17  A    between atoms: _41  and  _42
REMARK   18  A    between atoms: _41  and  _44
REMARK   19  A    between atoms: _44  and  _45
REMARK   20  A    between atoms: _47  and  _49
REMARK   21  A    between atoms: _49  and  _50
REMARK   22  A    between atoms: _49  and  _52
REMARK   23  A    between atoms: _52  and  _53
REMARK   24  A    between atoms: _59  and  _61
REMARK   25  A    between atoms: _61  and  _62
REMARK   26  A    between atoms: _61  and  _64
REMARK   27  A    between atoms: _64  and  _65
REMARK   28  A    between atoms: _70  and  _72
REMARK   29  A    between atoms: _72  and  _73
REMARK   30  A    between atoms: _72  and  _75
REMARK   31  A    between atoms: _75  and  _76
REMARK   32  A    between atoms: _81  and  _82
REMARK   33  A    between atoms: _84  and  _86
REMARK   34  A    between atoms: _86  and  _87
REMARK   35  A    between atoms: _86  and  _89
REMARK   36  A    between atoms: _89  and  _90
REMARK   37  A    between atoms: _90  and  _91
REMARK   38  A    between atoms: _91  and  _92
REMARK   39  A    between atoms: _101  and  _103
REMARK   40  A    between atoms: _103  and  _104
REMARK   41  A    between atoms: _103  and  _106
REMARK   42  A    between atoms: _106  and  _107
REMARK   43  A    between atoms: _112  and  _114
REMARK   44  A    between atoms: _114  and  _115
REMARK   45  A    between atoms: _114  and  _117
REMARK   46  A    between atoms: _117  and  _118
REMARK   47  A    between atoms: _120  and  _122
REMARK   48  A    between atoms: _122  and  _123
REMARK   49  A    between atoms: _122  and  _125
REMARK   50  A    between atoms: _125  and  _126
REMARK   51  A    between atoms: _131  and  _133
REMARK   52  A    between atoms: _133  and  _134
REMARK   53  A    between atoms: _133  and  _136
REMARK   54  A    between atoms: _136  and  _137
REMARK   55  A    between atoms: _137  and  _138
REMARK   56  A    between atoms: _138  and  _139
REMARK   57  A    between atoms: _148  and  _150
REMARK   58  A    between atoms: _150  and  _151
REMARK   59  A    between atoms: _150  and  _153
REMARK   60  A    between atoms: _153  and  _154
REMARK   61  A    between atoms: _154  and  _155
REMARK   62  A    between atoms: _155  and  _156
REMARK   63  A    between atoms: _165  and  _167
REMARK   64  A    between atoms: _167  and  _168
REMARK   65  A    between atoms: _170  and  _172
REMARK   66  A    between atoms: _172  and  _173
REMARK   67  A    between atoms: _175  and  _177
REMARK   68  A    between atoms: _177  and  _178
REMARK   69  A    between atoms: _177  and  _180
REMARK   70  A    between atoms: _180  and  _181
REMARK   71  A    between atoms: _186  and  _187
REMARK   72  A    between atoms: _189  and  _191
REMARK   73  A    between atoms: _191  and  _192
REMARK   74  A    between atoms: _194  and  _196
REMARK   75  A    between atoms: _196  and  _197
REMARK   76  A    between atoms: _196  and  _199
REMARK   77  A    between atoms: _199  and  _200
REMARK   78  A    between atoms: _203  and  _205
REMARK   79  A    between atoms: _205  and  _206
REMARK   80  A    between atoms: _205  and  _208
REMARK   81  A    between atoms: _208  and  _209
REMARK   82  A    between atoms: _209  and  _210
REMARK   83  A    between atoms: _210  and  _211
REMARK   84  A    between atoms: _220  and  _222
REMARK   85  A    between atoms: _222  and  _223
REMARK   86  A    between atoms: _225  and  _227
REMARK   87  A    between atoms: _227  and  _228
REMARK   88  A    between atoms: _227  and  _230
REMARK   89  A    between atoms: _230  and  _231
REMARK   90  A    between atoms: _236  and  _237
REMARK                            x       y       z     vdW  Elec       q    Type
REMARK                         _______ _______ _______ _____ _____    ______ ____
ROOT
ATOM      1  C   GLY A   3     -41.212 -15.402  12.909  0.00  0.00    +0.243 C 
ATOM      2  O   GLY A   3     -42.005 -14.760  13.598  0.00  0.00    -0.273 OA
ATOM      3  N   ASN A   4     -39.997 -14.940  12.595  0.00  0.00    -0.297 N 
ATOM      4  H   ASN A   4     -39.357 -15.525  12.021  0.00  0.00    +0.150 HD
ENDROOT
BRANCH   3   5
ATOM      5  CA  ASN A   4     -39.560 -13.622  13.050  0.00  0.00    +0.158 C 
BRANCH   5   6
ATOM      6  C   ASN A   4     -39.285 -12.654  11.895  0.00  0.00    +0.241 C 
ATOM      7  N   SER A   5     -39.193 -11.366  12.218  0.00  0.00    -0.295 N 
ATOM      8  H   SER A   5     -39.399 -11.091  13.200  0.00  0.00    +0.150 HD
ATOM      9  O   ASN A   4     -39.165 -13.066  10.754  0.00  0.00    -0.273 OA
BRANCH   7  10
ATOM     10  CA  SER A   5     -38.823 -10.326  11.283  0.00  0.00    +0.178 C 
BRANCH  10  11
ATOM     11  C   SER A   5     -37.509  -9.790  11.747  0.00  0.00    +0.243 C 
ATOM     12  O   SER A   5     -37.433  -9.184  12.840  0.00  0.00    -0.273 OA
ATOM     13  N   PHE A   6     -36.469 -10.035  10.940  0.00  0.00    -0.298 N 
ATOM     14  H   PHE A   6     -36.630 -10.506  10.027  0.00  0.00    +0.150 HD
BRANCH  13  15
ATOM     15  CA  PHE A   6     -35.106  -9.649  11.324  0.00  0.00    +0.141 C 
BRANCH  15  16
ATOM     16  C   PHE A   6     -34.771  -8.245  10.871  0.00  0.00    +0.227 C 
ATOM     17  O   PHE A   6     -33.885  -8.026  10.036  0.00  0.00    -0.286 OA
ENDBRANCH  15  16
BRANCH  15  18
ATOM     18  CB  PHE A   6     -34.072 -10.726  10.923  0.00  0.00    +0.054 C 
BRANCH  18  19
ATOM     19  CG  PHE A   6     -34.266 -12.005  11.684  0.00  0.00    -0.020 A 
ATOM     20  CD2 PHE A   6     -33.730 -12.156  12.987  0.00  0.00    -0.004 A 
ATOM     21  CE2 PHE A   6     -33.936 -13.344  13.725  0.00  0.00    -0.000 A 
ATOM     22  CZ  PHE A   6     -34.693 -14.380  13.168  0.00  0.00    -0.000 A 
ATOM     23  CE1 PHE A   6     -35.265 -14.217  11.890  0.00  0.00    -0.000 A 
ATOM     24  CD1 PHE A   6     -35.050 -13.037  11.152  0.00  0.00    -0.004 A 
ENDBRANCH  18  19
ENDBRANCH  15  18
ENDBRANCH  13  15
ENDBRANCH  10  11
BRANCH  10  25
ATOM     25  CB  SER A   5     -39.834  -9.199  11.315  0.00  0.00    +0.166 C 
BRANCH  25  26
ATOM     26  OG  SER A   5     -41.004  -9.594  10.644  0.00  0.00    -0.380 OA
ATOM     27  H   SER A   5     -40.786  -9.813   9.704  0.00  0.00    +0.211 HD
ENDBRANCH  25  26
ENDBRANCH  10  25
ENDBRANCH   7  10
ENDBRANCH   5   6
BRANCH   5  28
ATOM     28  CB  ASN A   4     -38.314 -13.761  13.917  0.00  0.00    +0.114 C 
BRANCH  28  29
ATOM     29  CG  ASN A   4     -38.629 -14.289  15.302  0.00  0.00    +0.222 C 
ATOM     30  ND2 ASN A   4     -39.080 -13.392  16.193  0.00  0.00    -0.329 N 
ATOM     31 HD21 ASN A   4     -39.343 -13.698  17.151  0.00  0.00    +0.145 HD
ATOM     32 HD22 ASN A   4     -39.166 -12.391  15.925  0.00  0.00    +0.145 HD
ATOM     33  OD1 ASN A   4     -38.505 -15.499  15.566  0.00  0.00    -0.275 OA
ENDBRANCH  28  29
ENDBRANCH   5  28
ENDBRANCH   3   5
BRANCH   1  34
ATOM     34  CA  GLY A   3     -41.633 -16.748  12.371  0.00  0.00    +0.176 C 
BRANCH  34  37
ATOM     35  C   TYR A   2     -39.610 -18.028  12.208  0.00  0.00    +0.241 C 
ATOM     36  O   TYR A   2     -39.437 -17.997  13.408  0.00  0.00    -0.273 OA
ATOM     37  N   GLY A   3     -40.612 -17.410  11.605  0.00  0.00    -0.295 N 
ATOM     38  H   GLY A   3     -40.662 -17.403  10.566  0.00  0.00    +0.150 HD
BRANCH  35  39
ATOM     39  CA  TYR A   2     -38.635 -18.758  11.334  0.00  0.00    +0.153 C 
BRANCH  39  42
ATOM     40  C   SER A   1     -37.977 -16.732  10.161  0.00  0.00    +0.241 C 
ATOM     41  O   SER A   1     -37.960 -16.020  11.181  0.00  0.00    -0.274 OA
ATOM     42  N   TYR A   2     -38.333 -18.001  10.135  0.00  0.00    -0.297 N 
ATOM     43  H   TYR A   2     -38.400 -18.480   9.214  0.00  0.00    +0.150 HD
BRANCH  40  44
ATOM     44  CA  SER A   1     -37.534 -16.183   8.853  0.00  0.00    +0.174 C 
BRANCH  44  45
ATOM     45  N   SER A   1     -38.072 -14.812   8.813  0.00  0.00    -0.236 NA
ATOM     46  H   SER A   1     -38.352 -14.356   9.705  0.00  0.00    +0.142 HD
ENDBRANCH  44  45
BRANCH  44  47
ATOM     47  CB  SER A   1     -36.034 -16.136   8.980  0.00  0.00    +0.163 C 
BRANCH  47  48
ATOM     48  OG  SER A   1     -35.390 -16.248   7.754  0.00  0.00    -0.380 OA
ATOM     49  H   SER A   1     -35.669 -15.502   7.166  0.00  0.00    +0.211 HD
ENDBRANCH  47  48
ENDBRANCH  44  47
ENDBRANCH  40  44
ENDBRANCH  39  42
BRANCH  39  50
ATOM     50  CB  TYR A   2     -37.360 -19.047  12.122  0.00  0.00    +0.055 C 
BRANCH  50  51
ATOM     51  CG  TYR A   2     -36.313 -19.661  11.262  0.00  0.00    -0.020 A 
ATOM     52  CD2 TYR A   2     -35.148 -18.961  10.945  0.00  0.00    -0.001 A 
ATOM     53  CE2 TYR A   2     -34.190 -19.535  10.119  0.00  0.00    +0.036 A 
ATOM     54  CZ  TYR A   2     -34.381 -20.783   9.616  0.00  0.00    +0.134 A 
ATOM     55  CE1 TYR A   2     -35.540 -21.507   9.925  0.00  0.00    +0.036 A 
ATOM     56  CD1 TYR A   2     -36.495 -20.930  10.727  0.00  0.00    -0.001 A 
BRANCH  54  57
ATOM     57  OH  TYR A   2     -33.394 -21.352   8.819  0.00  0.00    -0.506 OA
ATOM     58  HH  TYR A   2     -33.682 -22.255   8.534  0.00  0.00    +0.292 HD
ENDBRANCH  54  57
ENDBRANCH  50  51
ENDBRANCH  39  50
ENDBRANCH  35  39
ENDBRANCH  34  37
ENDBRANCH   1  34
TORSDOF 23
REMARK  Name = ../refined-set-2016/4nja/4nja_pocket.pdb
REMARK  90 active torsions:
REMARK  status: ('A' for Active; 'I' for Inactive)
REMARK    1  A    between atoms: _1  and  _3
REMARK    2  A    between atoms: _3  and  _4
REMARK    3  A    between atoms: _3  and  _6
REMARK    4  A    between atoms: _6  and  _7
REMARK    5  A    between atoms: _9  and  _11
REMARK    6  A    between atoms: _11  and  _12
REMARK    7  A    between atoms: _11  and  _14
REMARK    8  A    between atoms: _14  and  _15
REMARK    9  A    between atoms: _20  and  _21
REMARK   10  A    between atoms: _23  and  _25
REMARK   11  A    between atoms: _25  and  _26
REMARK   12  A    between atoms: _28  and  _30
REMARK   13  A    between atoms: _30  and  _31
REMARK   14  A    between atoms: _30  and  _33
REMARK   15  A    between atoms: _33  and  _34
REMARK   16  A    between atoms: _39  and  _41
REMARK   17  A    between atoms: _41  and  _42
REMARK   18  A    between atoms: _41  and  _44
REMARK   19  A    between atoms: _44  and  _45
REMARK   20  A    between atoms: _47  and  _49
REMARK   21  A    between atoms: _49  and  _50
REMARK   22  A    between atoms: _49  and  _52
REMARK   23  A    between atoms: _52  and  _53
REMARK   24  A    between atoms: _59  and  _61
REMARK   25  A    between atoms: _61  and  _62
REMARK   26  A    between atoms: _61  and  _64
REMARK   27  A    between atoms: _64  and  _65
REMARK   28  A    between atoms: _70  and  _72
REMARK   29  A    between atoms: _72  and  _73
REMARK   30  A    between atoms: _72  and  _75
REMARK   31  A    between atoms: _75  and  _76
REMARK   32  A    between atoms: _81  and  _82
REMARK   33  A    between atoms: _84  and  _86
REMARK   34  A    between atoms: _86  and  _87
REMARK   35  A    between atoms: _86  and  _89
REMARK   36  A    between atoms: _89  and  _90
REMARK   37  A    between atoms: _90  and  _91
REMARK   38  A    between atoms: _91  and  _92
REMARK   39  A    between atoms: _101  and  _103
REMARK   40  A    between atoms: _103  and  _104
REMARK   41  A    between atoms: _103  and  _106
REMARK   42  A    between atoms: _106  and  _107
REMARK   43  A    between atoms: _112  and  _114
REMARK   44  A    between atoms: _114  and  _115
REMARK   45  A    between atoms: _114  and  _117
REMARK   46  A    between atoms: _117  and  _118
REMARK   47  A    between atoms: _120  and  _122
REMARK   48  A    between atoms: _122  and  _123
REMARK   49  A    between atoms: _122  and  _125
REMARK   50  A    between atoms: _125  and  _126
REMARK   51  A    between atoms: _131  and  _133
REMARK   52  A    between atoms: _133  and  _134
REMARK   53  A    between atoms: _133  and  _136
REMARK   54  A    between atoms: _136  and  _137
REMARK   55  A    between atoms: _137  and  _138
REMARK   56  A    between atoms: _138  and  _139
REMARK   57  A    between atoms: _148  and  _150
REMARK   58  A    between atoms: _150  and  _151
REMARK   59  A    between atoms: _150  and  _153
REMARK   60  A    between atoms: _153  and  _154
REMARK   61  A    between atoms: _154  and  _155
REMARK   62  A    between atoms: _155  and  _156
REMARK   63  A    between atoms: _165  and  _167
REMARK   64  A    between atoms: _167  and  _168
REMARK   65  A    between atoms: _170  and  _172
REMARK   66  A    between atoms: _172  and  _173
REMARK   67  A    between atoms: _175  and  _177
REMARK   68  A    between atoms: _177  and  _178
REMARK   69  A    between atoms: _177  and  _180
REMARK   70  A    between atoms: _180  and  _181
REMARK   71  A    between atoms: _186  and  _187
REMARK   72  A    between atoms: _189  and  _191
REMARK   73  A    between atoms: _191  and  _192
REMARK   74  A    between atoms: _194  and  _196
REMARK   75  A    between atoms: _196  and  _197
REMARK   76  A    between atoms: _196  and  _199
REMARK   77  A    between atoms: _199  and  _200
REMARK   78  A    between atoms: _203  and  _205
REMARK   79  A    between atoms: _205  and  _206
REMARK   80  A    between atoms: _205  and  _208
REMARK   81  A    between atoms: _208  and  _209
REMARK   82  A    between atoms: _209  and  _210
REMARK   83  A    between atoms: _210  and  _211
REMARK   84  A    between atoms: _220  and  _222
REMARK   85  A    between atoms: _222  and  _223
REMARK   86  A    between atoms: _225  and  _227
REMARK   87  A    between atoms: _227  and  _228
REMARK   88  A    between atoms: _227  and  _230
REMARK   89  A    between atoms: _230  and  _231
REMARK   90  A    between atoms: _236  and  _237
REMARK                            x       y       z     vdW  Elec       q    Type
REMARK                         _______ _______ _______ _____ _____    ______ ____
ROOT
ATOM      1  CB  HIS A   1     -32.413  -4.173  14.392  0.00  0.00    +0.072 C 
ENDROOT
BRANCH   1   2
ATOM      2  CG  HIS A   1     -32.340  -5.656  14.311  0.00  0.00    +0.082 A 
ATOM      3  CD2 HIS A   1     -33.122  -6.617  14.874  0.00  0.00    +0.115 A 
ATOM      4  NE2 HIS A   1     -32.693  -7.818  14.369  0.00  0.00    -0.221 NA
ATOM      5  CE1 HIS A   1     -31.667  -7.616  13.556  0.00  0.00    +0.199 A 
ATOM      6  ND1 HIS A   1     -31.462  -6.311  13.465  0.00  0.00    -0.227 NA
ENDBRANCH   1   2
BRANCH   1   7
ATOM      7  CA  HIS A   1     -33.755  -3.628  13.870  0.00  0.00    +0.139 C 
BRANCH   7   8
ATOM      8  N   HIS A   1     -34.096  -4.338  12.653  0.00  0.00    -0.239 NA
ATOM      9  H   HIS A   1     -33.518  -4.168  11.805  0.00  0.00    +0.142 HD
ENDBRANCH   7   8
BRANCH   7  10
ATOM     10  C   HIS A   1     -33.699  -2.124  13.654  0.00  0.00    +0.224 C 
ATOM     11  O   HIS A   1     -33.513  -1.662  12.501  0.00  0.00    -0.287 OA
ENDBRANCH   7  10
ENDBRANCH   1   7
TORSDOF 4
REMARK  Name = ../refined-set-2016/4nja/4nja_pocket.pdb
REMARK  90 active torsions:
REMARK  status: ('A' for Active; 'I' for Inactive)
REMARK    1  A    between atoms: _1  and  _3
REMARK    2  A    between atoms: _3  and  _4
REMARK    3  A    between atoms: _3  and  _6
REMARK    4  A    between atoms: _6  and  _7
REMARK    5  A    between atoms: _9  and  _11
REMARK    6  A    between atoms: _11  and  _12
REMARK    7  A    between atoms: _11  and  _14
REMARK    8  A    between atoms: _14  and  _15
REMARK    9  A    between atoms: _20  and  _21
REMARK   10  A    between atoms: _23  and  _25
REMARK   11  A    between atoms: _25  and  _26
REMARK   12  A    between atoms: _28  and  _30
REMARK   13  A    between atoms: _30  and  _31
REMARK   14  A    between atoms: _30  and  _33
REMARK   15  A    between atoms: _33  and  _34
REMARK   16  A    between atoms: _39  and  _41
REMARK   17  A    between atoms: _41  and  _42
REMARK   18  A    between atoms: _41  and  _44
REMARK   19  A    between atoms: _44  and  _45
REMARK   20  A    between atoms: _47  and  _49
REMARK   21  A    between atoms: _49  and  _50
REMARK   22  A    between atoms: _49  and  _52
REMARK   23  A    between atoms: _52  and  _53
REMARK   24  A    between atoms: _59  and  _61
REMARK   25  A    between atoms: _61  and  _62
REMARK   26  A    between atoms: _61  and  _64
REMARK   27  A    between atoms: _64  and  _65
REMARK   28  A    between atoms: _70  and  _72
REMARK   29  A    between atoms: _72  and  _73
REMARK   30  A    between atoms: _72  and  _75
REMARK   31  A    between atoms: _75  and  _76
REMARK   32  A    between atoms: _81  and  _82
REMARK   33  A    between atoms: _84  and  _86
REMARK   34  A    between atoms: _86  and  _87
REMARK   35  A    between atoms: _86  and  _89
REMARK   36  A    between atoms: _89  and  _90
REMARK   37  A    between atoms: _90  and  _91
REMARK   38  A    between atoms: _91  and  _92
REMARK   39  A    between atoms: _101  and  _103
REMARK   40  A    between atoms: _103  and  _104
REMARK   41  A    between atoms: _103  and  _106
REMARK   42  A    between atoms: _106  and  _107
REMARK   43  A    between atoms: _112  and  _114
REMARK   44  A    between atoms: _114  and  _115
REMARK   45  A    between atoms: _114  and  _117
REMARK   46  A    between atoms: _117  and  _118
REMARK   47  A    between atoms: _120  and  _122
REMARK   48  A    between atoms: _122  and  _123
REMARK   49  A    between atoms: _122  and  _125
REMARK   50  A    between atoms: _125  and  _126
REMARK   51  A    between atoms: _131  and  _133
REMARK   52  A    between atoms: _133  and  _134
REMARK   53  A    between atoms: _133  and  _136
REMARK   54  A    between atoms: _136  and  _137
REMARK   55  A    between atoms: _137  and  _138
REMARK   56  A    between atoms: _138  and  _139
REMARK   57  A    between atoms: _148  and  _150
REMARK   58  A    between atoms: _150  and  _151
REMARK   59  A    between atoms: _150  and  _153
REMARK   60  A    between atoms: _153  and  _154
REMARK   61  A    between atoms: _154  and  _155
REMARK   62  A    between atoms: _155  and  _156
REMARK   63  A    between atoms: _165  and  _167
REMARK   64  A    between atoms: _167  and  _168
REMARK   65  A    between atoms: _170  and  _172
REMARK   66  A    between atoms: _172  and  _173
REMARK   67  A    between atoms: _175  and  _177
REMARK   68  A    between atoms: _177  and  _178
REMARK   69  A    between atoms: _177  and  _180
REMARK   70  A    between atoms: _180  and  _181
REMARK   71  A    between atoms: _186  and  _187
REMARK   72  A    between atoms: _189  and  _191
REMARK   73  A    between atoms: _191  and  _192
REMARK   74  A    between atoms: _194  and  _196
REMARK   75  A    between atoms: _196  and  _197
REMARK   76  A    between atoms: _196  and  _199
REMARK   77  A    between atoms: _199  and  _200
REMARK   78  A    between atoms: _203  and  _205
REMARK   79  A    between atoms: _205  and  _206
REMARK   80  A    between atoms: _205  and  _208
REMARK   81  A    between atoms: _208  and  _209
REMARK   82  A    between atoms: _209  and  _210
REMARK   83  A    between atoms: _210  and  _211
REMARK   84  A    between atoms: _220  and  _222
REMARK   85  A    between atoms: _222  and  _223
REMARK   86  A    between atoms: _225  and  _227
REMARK   87  A    between atoms: _227  and  _228
REMARK   88  A    between atoms: _227  and  _230
REMARK   89  A    between atoms: _230  and  _231
REMARK   90  A    between atoms: _236  and  _237
REMARK                            x       y       z     vdW  Elec       q    Type
REMARK                         _______ _______ _______ _____ _____    ______ ____
ROOT
ATOM      1  C   TYR A   1     -35.914  -6.523  17.350  0.00  0.00    +0.239 C 
ATOM      2  O   TYR A   1     -36.900  -6.636  18.061  0.00  0.00    -0.274 OA
ATOM      3  N   ARG A   2     -35.691  -7.230  16.239  0.00  0.00    -0.298 N 
ATOM      4  H   ARG A   2     -34.754  -7.145  15.796  0.00  0.00    +0.150 HD
ENDROOT
BRANCH   1   5
ATOM      5  CA  TYR A   1     -34.809  -5.606  17.744  0.00  0.00    +0.149 C 
BRANCH   5   6
ATOM      6  N   TYR A   1     -35.265  -4.453  18.508  0.00  0.00    -0.238 NA
ATOM      7  H   TYR A   1     -35.795  -4.615  19.388  0.00  0.00    +0.142 HD
ENDBRANCH   5   6
BRANCH   5   8
ATOM      8  CB  TYR A   1     -33.722  -6.426  18.444  0.00  0.00    +0.053 C 
BRANCH   8   9
ATOM      9  CG  TYR A   1     -34.139  -7.053  19.754  0.00  0.00    -0.020 A 
ATOM     10  CD2 TYR A   1     -34.023  -6.325  20.954  0.00  0.00    -0.001 A 
ATOM     11  CE2 TYR A   1     -34.358  -6.884  22.176  0.00  0.00    +0.036 A 
ATOM     12  CZ  TYR A   1     -34.849  -8.151  22.202  0.00  0.00    +0.134 A 
ATOM     13  CE1 TYR A   1     -35.024  -8.902  21.034  0.00  0.00    +0.036 A 
ATOM     14  CD1 TYR A   1     -34.668  -8.341  19.808  0.00  0.00    -0.001 A 
BRANCH  12  15
ATOM     15  OH  TYR A   1     -35.196  -8.649  23.411  0.00  0.00    -0.506 OA
ATOM     16  HH  TYR A   1     -35.000  -7.978  24.112  0.00  0.00    +0.292 HD
ENDBRANCH  12  15
ENDBRANCH   8   9
ENDBRANCH   5   8
ENDBRANCH   1   5
BRANCH   3  17
ATOM     17  CA  ARG A   2     -36.662  -8.113  15.598  0.00  0.00    +0.137 C 
BRANCH  17  18
ATOM     18  C   ARG A   2     -37.994  -7.418  15.461  0.00  0.00    +0.227 C 
ATOM     19  O   ARG A   2     -39.006  -7.914  15.912  0.00  0.00    -0.286 OA
ENDBRANCH  17  18
BRANCH  17  20
ATOM     20  CB  ARG A   2     -36.772  -9.488  16.278  0.00  0.00    +0.031 C 
BRANCH  20  21
ATOM     21  CG  ARG A   2     -35.554 -10.348  15.992  0.00  0.00    +0.045 C 
BRANCH  21  22
ATOM     22  CD  ARG A   2     -35.772 -11.816  16.306  0.00  0.00    +0.174 C 
BRANCH  22  23
ATOM     23  NE  ARG A   2     -36.550 -12.080  17.514  0.00  0.00    -0.265 N 
ATOM     24  CZ  ARG A   2     -36.054 -12.099  18.736  0.00  0.00    +0.342 C 
ATOM     25  NH2 ARG A   2     -36.830 -12.374  19.751  0.00  0.00    -0.292 N 
ATOM     26 HH21 ARG A   2     -36.440 -12.389  20.715  0.00  0.00    +0.255 HD
ATOM     27 HH22 ARG A   2     -37.838 -12.578  19.595  0.00  0.00    +0.255 HD
ATOM     28  NH1 ARG A   2     -34.766 -11.872  18.936  0.00  0.00    -0.292 N 
ATOM     29 HH11 ARG A   2     -34.379 -11.888  19.901  0.00  0.00    +0.255 HD
ATOM     30 HH12 ARG A   2     -34.141 -11.678  18.128  0.00  0.00    +0.255 HD
ATOM     31  HE  ARG A   2     -37.567 -12.266  17.403  0.00  0.00    +0.259 HD
ENDBRANCH  22  23
ENDBRANCH  21  22
ENDBRANCH  20  21
ENDBRANCH  17  20
ENDBRANCH   3  17
TORSDOF 11
REMARK  Name = ../refined-set-2016/4nja/4nja_pocket.pdb
REMARK  90 active torsions:
REMARK  status: ('A' for Active; 'I' for Inactive)
REMARK    1  A    between atoms: _1  and  _3
REMARK    2  A    between atoms: _3  and  _4
REMARK    3  A    between atoms: _3  and  _6
REMARK    4  A    between atoms: _6  and  _7
REMARK    5  A    between atoms: _9  and  _11
REMARK    6  A    between atoms: _11  and  _12
REMARK    7  A    between atoms: _11  and  _14
REMARK    8  A    between atoms: _14  and  _15
REMARK    9  A    between atoms: _20  and  _21
REMARK   10  A    between atoms: _23  and  _25
REMARK   11  A    between atoms: _25  and  _26
REMARK   12  A    between atoms: _28  and  _30
REMARK   13  A    between atoms: _30  and  _31
REMARK   14  A    between atoms: _30  and  _33
REMARK   15  A    between atoms: _33  and  _34
REMARK   16  A    between atoms: _39  and  _41
REMARK   17  A    between atoms: _41  and  _42
REMARK   18  A    between atoms: _41  and  _44
REMARK   19  A    between atoms: _44  and  _45
REMARK   20  A    between atoms: _47  and  _49
REMARK   21  A    between atoms: _49  and  _50
REMARK   22  A    between atoms: _49  and  _52
REMARK   23  A    between atoms: _52  and  _53
REMARK   24  A    between atoms: _59  and  _61
REMARK   25  A    between atoms: _61  and  _62
REMARK   26  A    between atoms: _61  and  _64
REMARK   27  A    between atoms: _64  and  _65
REMARK   28  A    between atoms: _70  and  _72
REMARK   29  A    between atoms: _72  and  _73
REMARK   30  A    between atoms: _72  and  _75
REMARK   31  A    between atoms: _75  and  _76
REMARK   32  A    between atoms: _81  and  _82
REMARK   33  A    between atoms: _84  and  _86
REMARK   34  A    between atoms: _86  and  _87
REMARK   35  A    between atoms: _86  and  _89
REMARK   36  A    between atoms: _89  and  _90
REMARK   37  A    between atoms: _90  and  _91
REMARK   38  A    between atoms: _91  and  _92
REMARK   39  A    between atoms: _101  and  _103
REMARK   40  A    between atoms: _103  and  _104
REMARK   41  A    between atoms: _103  and  _106
REMARK   42  A    between atoms: _106  and  _107
REMARK   43  A    between atoms: _112  and  _114
REMARK   44  A    between atoms: _114  and  _115
REMARK   45  A    between atoms: _114  and  _117
REMARK   46  A    between atoms: _117  and  _118
REMARK   47  A    between atoms: _120  and  _122
REMARK   48  A    between atoms: _122  and  _123
REMARK   49  A    between atoms: _122  and  _125
REMARK   50  A    between atoms: _125  and  _126
REMARK   51  A    between atoms: _131  and  _133
REMARK   52  A    between atoms: _133  and  _134
REMARK   53  A    between atoms: _133  and  _136
REMARK   54  A    between atoms: _136  and  _137
REMARK   55  A    between atoms: _137  and  _138
REMARK   56  A    between atoms: _138  and  _139
REMARK   57  A    between atoms: _148  and  _150
REMARK   58  A    between atoms: _150  and  _151
REMARK   59  A    between atoms: _150  and  _153
REMARK   60  A    between atoms: _153  and  _154
REMARK   61  A    between atoms: _154  and  _155
REMARK   62  A    between atoms: _155  and  _156
REMARK   63  A    between atoms: _165  and  _167
REMARK   64  A    between atoms: _167  and  _168
REMARK   65  A    between atoms: _170  and  _172
REMARK   66  A    between atoms: _172  and  _173
REMARK   67  A    between atoms: _175  and  _177
REMARK   68  A    between atoms: _177  and  _178
REMARK   69  A    between atoms: _177  and  _180
REMARK   70  A    between atoms: _180  and  _181
REMARK   71  A    between atoms: _186  and  _187
REMARK   72  A    between atoms: _189  and  _191
REMARK   73  A    between atoms: _191  and  _192
REMARK   74  A    between atoms: _194  and  _196
REMARK   75  A    between atoms: _196  and  _197
REMARK   76  A    between atoms: _196  and  _199
REMARK   77  A    between atoms: _199  and  _200
REMARK   78  A    between atoms: _203  and  _205
REMARK   79  A    between atoms: _205  and  _206
REMARK   80  A    between atoms: _205  and  _208
REMARK   81  A    between atoms: _208  and  _209
REMARK   82  A    between atoms: _209  and  _210
REMARK   83  A    between atoms: _210  and  _211
REMARK   84  A    between atoms: _220  and  _222
REMARK   85  A    between atoms: _222  and  _223
REMARK   86  A    between atoms: _225  and  _227
REMARK   87  A    between atoms: _227  and  _228
REMARK   88  A    between atoms: _227  and  _230
REMARK   89  A    between atoms: _230  and  _231
REMARK   90  A    between atoms: _236  and  _237
REMARK                            x       y       z     vdW  Elec       q    Type
REMARK                         _______ _______ _______ _____ _____    ______ ____
ROOT
ATOM      1  CB  ASN A   1     -38.193  -7.044  21.162  0.00  0.00    +0.110 C 
ENDROOT
BRANCH   1   2
ATOM      2  CG  ASN A   1     -38.852  -8.249  20.615  0.00  0.00    +0.221 C 
ATOM      3  ND2 ASN A   1     -39.940  -8.713  21.227  0.00  0.00    -0.329 N 
ATOM      4 HD21 ASN A   1     -40.292  -8.246  22.087  0.00  0.00    +0.145 HD
ATOM      5 HD22 ASN A   1     -40.438  -9.542  20.845  0.00  0.00    +0.145 HD
ATOM      6  OD1 ASN A   1     -38.395  -8.751  19.610  0.00  0.00    -0.275 OA
ENDBRANCH   1   2
BRANCH   1   7
ATOM      7  CA  ASN A   1     -38.965  -5.779  20.888  0.00  0.00    +0.142 C 
BRANCH   7   8
ATOM      8  N   ASN A   1     -39.328  -5.601  19.454  0.00  0.00    -0.239 NA
ATOM      9  H   ASN A   1     -38.668  -5.891  18.705  0.00  0.00    +0.142 HD
ENDBRANCH   7   8
BRANCH   7  10
ATOM     10  C   ASN A   1     -38.118  -4.591  21.379  0.00  0.00    +0.225 C 
ATOM     11  O   ASN A   1     -37.112  -4.283  20.790  0.00  0.00    -0.287 OA
ENDBRANCH   7  10
ENDBRANCH   1   7
TORSDOF 4
REMARK  Name = ../refined-set-2016/4nja/4nja_pocket.pdb
REMARK  90 active torsions:
REMARK  status: ('A' for Active; 'I' for Inactive)
REMARK    1  A    between atoms: _1  and  _3
REMARK    2  A    between atoms: _3  and  _4
REMARK    3  A    between atoms: _3  and  _6
REMARK    4  A    between atoms: _6  and  _7
REMARK    5  A    between atoms: _9  and  _11
REMARK    6  A    between atoms: _11  and  _12
REMARK    7  A    between atoms: _11  and  _14
REMARK    8  A    between atoms: _14  and  _15
REMARK    9  A    between atoms: _20  and  _21
REMARK   10  A    between atoms: _23  and  _25
REMARK   11  A    between atoms: _25  and  _26
REMARK   12  A    between atoms: _28  and  _30
REMARK   13  A    between atoms: _30  and  _31
REMARK   14  A    between atoms: _30  and  _33
REMARK   15  A    between atoms: _33  and  _34
REMARK   16  A    between atoms: _39  and  _41
REMARK   17  A    between atoms: _41  and  _42
REMARK   18  A    between atoms: _41  and  _44
REMARK   19  A    between atoms: _44  and  _45
REMARK   20  A    between atoms: _47  and  _49
REMARK   21  A    between atoms: _49  and  _50
REMARK   22  A    between atoms: _49  and  _52
REMARK   23  A    between atoms: _52  and  _53
REMARK   24  A    between atoms: _59  and  _61
REMARK   25  A    between atoms: _61  and  _62
REMARK   26  A    between atoms: _61  and  _64
REMARK   27  A    between atoms: _64  and  _65
REMARK   28  A    between atoms: _70  and  _72
REMARK   29  A    between atoms: _72  and  _73
REMARK   30  A    between atoms: _72  and  _75
REMARK   31  A    between atoms: _75  and  _76
REMARK   32  A    between atoms: _81  and  _82
REMARK   33  A    between atoms: _84  and  _86
REMARK   34  A    between atoms: _86  and  _87
REMARK   35  A    between atoms: _86  and  _89
REMARK   36  A    between atoms: _89  and  _90
REMARK   37  A    between atoms: _90  and  _91
REMARK   38  A    between atoms: _91  and  _92
REMARK   39  A    between atoms: _101  and  _103
REMARK   40  A    between atoms: _103  and  _104
REMARK   41  A    between atoms: _103  and  _106
REMARK   42  A    between atoms: _106  and  _107
REMARK   43  A    between atoms: _112  and  _114
REMARK   44  A    between atoms: _114  and  _115
REMARK   45  A    between atoms: _114  and  _117
REMARK   46  A    between atoms: _117  and  _118
REMARK   47  A    between atoms: _120  and  _122
REMARK   48  A    between atoms: _122  and  _123
REMARK   49  A    between atoms: _122  and  _125
REMARK   50  A    between atoms: _125  and  _126
REMARK   51  A    between atoms: _131  and  _133
REMARK   52  A    between atoms: _133  and  _134
REMARK   53  A    between atoms: _133  and  _136
REMARK   54  A    between atoms: _136  and  _137
REMARK   55  A    between atoms: _137  and  _138
REMARK   56  A    between atoms: _138  and  _139
REMARK   57  A    between atoms: _148  and  _150
REMARK   58  A    between atoms: _150  and  _151
REMARK   59  A    between atoms: _150  and  _153
REMARK   60  A    between atoms: _153  and  _154
REMARK   61  A    between atoms: _154  and  _155
REMARK   62  A    between atoms: _155  and  _156
REMARK   63  A    between atoms: _165  and  _167
REMARK   64  A    between atoms: _167  and  _168
REMARK   65  A    between atoms: _170  and  _172
REMARK   66  A    between atoms: _172  and  _173
REMARK   67  A    between atoms: _175  and  _177
REMARK   68  A    between atoms: _177  and  _178
REMARK   69  A    between atoms: _177  and  _180
REMARK   70  A    between atoms: _180  and  _181
REMARK   71  A    between atoms: _186  and  _187
REMARK   72  A    between atoms: _189  and  _191
REMARK   73  A    between atoms: _191  and  _192
REMARK   74  A    between atoms: _194  and  _196
REMARK   75  A    between atoms: _196  and  _197
REMARK   76  A    between atoms: _196  and  _199
REMARK   77  A    between atoms: _199  and  _200
REMARK   78  A    between atoms: _203  and  _205
REMARK   79  A    between atoms: _205  and  _206
REMARK   80  A    between atoms: _205  and  _208
REMARK   81  A    between atoms: _208  and  _209
REMARK   82  A    between atoms: _209  and  _210
REMARK   83  A    between atoms: _210  and  _211
REMARK   84  A    between atoms: _220  and  _222
REMARK   85  A    between atoms: _222  and  _223
REMARK   86  A    between atoms: _225  and  _227
REMARK   87  A    between atoms: _227  and  _228
REMARK   88  A    between atoms: _227  and  _230
REMARK   89  A    between atoms: _230  and  _231
REMARK   90  A    between atoms: _236  and  _237
REMARK                            x       y       z     vdW  Elec       q    Type
REMARK                         _______ _______ _______ _____ _____    ______ ____
ROOT
ATOM      1  C   SER A   1     -30.555 -10.571   9.028  0.00  0.00    +0.241 C 
ATOM      2  O   SER A   1     -30.117 -11.615   9.474  0.00  0.00    -0.274 OA
ATOM      3  N   ASN A   2     -31.575 -10.568   8.186  0.00  0.00    -0.298 N 
ATOM      4  H   ASN A   2     -32.027  -9.681   7.885  0.00  0.00    +0.150 HD
ENDROOT
BRANCH   1   5
ATOM      5  CA  SER A   1     -29.967  -9.234   9.469  0.00  0.00    +0.174 C 
BRANCH   5   6
ATOM      6  N   SER A   1     -30.976  -8.229   9.308  0.00  0.00    -0.236 NA
ATOM      7  H   SER A   1     -31.943  -8.403   9.650  0.00  0.00    +0.142 HD
ENDBRANCH   5   6
BRANCH   5   8
ATOM      8  CB  SER A   1     -29.563  -9.307  10.965  0.00  0.00    +0.163 C 
BRANCH   8   9
ATOM      9  OG  SER A   1     -30.732  -9.508  11.756  0.00  0.00    -0.380 OA
ATOM     10  H   SER A   1     -30.478  -9.555  12.712  0.00  0.00    +0.211 HD
ENDBRANCH   8   9
ENDBRANCH   5   8
ENDBRANCH   1   5
BRANCH   3  11
ATOM     11  CA  ASN A   2     -32.047 -11.882   7.690  0.00  0.00    +0.146 C 
BRANCH  11  12
ATOM     12  C   ASN A   2     -31.047 -12.581   6.752  0.00  0.00    +0.227 C 
ATOM     13  O   ASN A   2     -31.030 -13.824   6.662  0.00  0.00    -0.286 OA
ENDBRANCH  11  12
BRANCH  11  14
ATOM     14  CB  ASN A   2     -33.415 -11.753   7.024  0.00  0.00    +0.112 C 
BRANCH  14  15
ATOM     15  CG  ASN A   2     -34.106 -13.111   6.843  0.00  0.00    +0.222 C 
ATOM     16  OD1 ASN A   2     -34.165 -13.940   7.757  0.00  0.00    -0.275 OA
ATOM     17  ND2 ASN A   2     -34.626 -13.334   5.664  0.00  0.00    -0.329 N 
ATOM     18 HD21 ASN A   2     -35.110 -14.234   5.471  0.00  0.00    +0.145 HD
ATOM     19 HD22 ASN A   2     -34.556 -12.611   4.920  0.00  0.00    +0.145 HD
ENDBRANCH  14  15
ENDBRANCH  11  14
ENDBRANCH   3  11
TORSDOF 8
REMARK  Name = ../refined-set-2016/4nja/4nja_pocket.pdb
REMARK  90 active torsions:
REMARK  status: ('A' for Active; 'I' for Inactive)
REMARK    1  A    between atoms: _1  and  _3
REMARK    2  A    between atoms: _3  and  _4
REMARK    3  A    between atoms: _3  and  _6
REMARK    4  A    between atoms: _6  and  _7
REMARK    5  A    between atoms: _9  and  _11
REMARK    6  A    between atoms: _11  and  _12
REMARK    7  A    between atoms: _11  and  _14
REMARK    8  A    between atoms: _14  and  _15
REMARK    9  A    between atoms: _20  and  _21
REMARK   10  A    between atoms: _23  and  _25
REMARK   11  A    between atoms: _25  and  _26
REMARK   12  A    between atoms: _28  and  _30
REMARK   13  A    between atoms: _30  and  _31
REMARK   14  A    between atoms: _30  and  _33
REMARK   15  A    between atoms: _33  and  _34
REMARK   16  A    between atoms: _39  and  _41
REMARK   17  A    between atoms: _41  and  _42
REMARK   18  A    between atoms: _41  and  _44
REMARK   19  A    between atoms: _44  and  _45
REMARK   20  A    between atoms: _47  and  _49
REMARK   21  A    between atoms: _49  and  _50
REMARK   22  A    between atoms: _49  and  _52
REMARK   23  A    between atoms: _52  and  _53
REMARK   24  A    between atoms: _59  and  _61
REMARK   25  A    between atoms: _61  and  _62
REMARK   26  A    between atoms: _61  and  _64
REMARK   27  A    between atoms: _64  and  _65
REMARK   28  A    between atoms: _70  and  _72
REMARK   29  A    between atoms: _72  and  _73
REMARK   30  A    between atoms: _72  and  _75
REMARK   31  A    between atoms: _75  and  _76
REMARK   32  A    between atoms: _81  and  _82
REMARK   33  A    between atoms: _84  and  _86
REMARK   34  A    between atoms: _86  and  _87
REMARK   35  A    between atoms: _86  and  _89
REMARK   36  A    between atoms: _89  and  _90
REMARK   37  A    between atoms: _90  and  _91
REMARK   38  A    between atoms: _91  and  _92
REMARK   39  A    between atoms: _101  and  _103
REMARK   40  A    between atoms: _103  and  _104
REMARK   41  A    between atoms: _103  and  _106
REMARK   42  A    between atoms: _106  and  _107
REMARK   43  A    between atoms: _112  and  _114
REMARK   44  A    between atoms: _114  and  _115
REMARK   45  A    between atoms: _114  and  _117
REMARK   46  A    between atoms: _117  and  _118
REMARK   47  A    between atoms: _120  and  _122
REMARK   48  A    between atoms: _122  and  _123
REMARK   49  A    between atoms: _122  and  _125
REMARK   50  A    between atoms: _125  and  _126
REMARK   51  A    between atoms: _131  and  _133
REMARK   52  A    between atoms: _133  and  _134
REMARK   53  A    between atoms: _133  and  _136
REMARK   54  A    between atoms: _136  and  _137
REMARK   55  A    between atoms: _137  and  _138
REMARK   56  A    between atoms: _138  and  _139
REMARK   57  A    between atoms: _148  and  _150
REMARK   58  A    between atoms: _150  and  _151
REMARK   59  A    between atoms: _150  and  _153
REMARK   60  A    between atoms: _153  and  _154
REMARK   61  A    between atoms: _154  and  _155
REMARK   62  A    between atoms: _155  and  _156
REMARK   63  A    between atoms: _165  and  _167
REMARK   64  A    between atoms: _167  and  _168
REMARK   65  A    between atoms: _170  and  _172
REMARK   66  A    between atoms: _172  and  _173
REMARK   67  A    between atoms: _175  and  _177
REMARK   68  A    between atoms: _177  and  _178
REMARK   69  A    between atoms: _177  and  _180
REMARK   70  A    between atoms: _180  and  _181
REMARK   71  A    between atoms: _186  and  _187
REMARK   72  A    between atoms: _189  and  _191
REMARK   73  A    between atoms: _191  and  _192
REMARK   74  A    between atoms: _194  and  _196
REMARK   75  A    between atoms: _196  and  _197
REMARK   76  A    between atoms: _196  and  _199
REMARK   77  A    between atoms: _199  and  _200
REMARK   78  A    between atoms: _203  and  _205
REMARK   79  A    between atoms: _205  and  _206
REMARK   80  A    between atoms: _205  and  _208
REMARK   81  A    between atoms: _208  and  _209
REMARK   82  A    between atoms: _209  and  _210
REMARK   83  A    between atoms: _210  and  _211
REMARK   84  A    between atoms: _220  and  _222
REMARK   85  A    between atoms: _222  and  _223
REMARK   86  A    between atoms: _225  and  _227
REMARK   87  A    between atoms: _227  and  _228
REMARK   88  A    between atoms: _227  and  _230
REMARK   89  A    between atoms: _230  and  _231
REMARK   90  A    between atoms: _236  and  _237
REMARK                            x       y       z     vdW  Elec       q    Type
REMARK                         _______ _______ _______ _____ _____    ______ ____
ROOT
ATOM      1  NE  ARG A   1     -25.729  -8.794  11.495  0.00  0.00    -0.265 N 
ATOM      2  HE  ARG A   1     -26.224  -8.307  12.269  0.00  0.00    +0.259 HD
ATOM      3  CZ  ARG A   1     -25.603 -10.119  11.566  0.00  0.00    +0.342 C 
ATOM      4  NH2 ARG A   1     -26.095 -10.777  12.622  0.00  0.00    -0.292 N 
ATOM      5 HH21 ARG A   1     -26.574 -10.255  13.383  0.00  0.00    +0.255 HD
ATOM      6 HH22 ARG A   1     -25.999 -11.811  12.681  0.00  0.00    +0.255 HD
ATOM      7  NH1 ARG A   1     -24.926 -10.780  10.626  0.00  0.00    -0.292 N 
ATOM      8 HH11 ARG A   1     -24.830 -11.814  10.685  0.00  0.00    +0.255 HD
ATOM      9 HH12 ARG A   1     -24.494 -10.262   9.834  0.00  0.00    +0.255 HD
ENDROOT
BRANCH   1  10
ATOM     10  CD  ARG A   1     -25.210  -7.984  10.390  0.00  0.00    +0.174 C 
BRANCH  10  11
ATOM     11  CG  ARG A   1     -26.186  -8.048   9.210  0.00  0.00    +0.045 C 
BRANCH  11  12
ATOM     12  CB  ARG A   1     -25.873  -6.927   8.254  0.00  0.00    +0.029 C 
BRANCH  12  13
ATOM     13  CA  ARG A   1     -26.350  -7.155   6.803  0.00  0.00    +0.133 C 
BRANCH  13  14
ATOM     14  N   ARG A   1     -25.504  -8.107   6.135  0.00  0.00    -0.239 NA
ATOM     15  H   ARG A   1     -24.823  -8.678   6.675  0.00  0.00    +0.142 HD
ENDBRANCH  13  14
BRANCH  13  16
ATOM     16  C   ARG A   1     -26.359  -5.800   6.040  0.00  0.00    +0.224 C 
ATOM     17  O   ARG A   1     -25.332  -5.352   5.503  0.00  0.00    -0.287 OA
ENDBRANCH  13  16
ENDBRANCH  12  13
ENDBRANCH  11  12
ENDBRANCH  10  11
ENDBRANCH   1  10
TORSDOF 6
REMARK  Name = ../refined-set-2016/4nja/4nja_pocket.pdb
REMARK  90 active torsions:
REMARK  status: ('A' for Active; 'I' for Inactive)
REMARK    1  A    between atoms: _1  and  _3
REMARK    2  A    between atoms: _3  and  _4
REMARK    3  A    between atoms: _3  and  _6
REMARK    4  A    between atoms: _6  and  _7
REMARK    5  A    between atoms: _9  and  _11
REMARK    6  A    between atoms: _11  and  _12
REMARK    7  A    between atoms: _11  and  _14
REMARK    8  A    between atoms: _14  and  _15
REMARK    9  A    between atoms: _20  and  _21
REMARK   10  A    between atoms: _23  and  _25
REMARK   11  A    between atoms: _25  and  _26
REMARK   12  A    between atoms: _28  and  _30
REMARK   13  A    between atoms: _30  and  _31
REMARK   14  A    between atoms: _30  and  _33
REMARK   15  A    between atoms: _33  and  _34
REMARK   16  A    between atoms: _39  and  _41
REMARK   17  A    between atoms: _41  and  _42
REMARK   18  A    between atoms: _41  and  _44
REMARK   19  A    between atoms: _44  and  _45
REMARK   20  A    between atoms: _47  and  _49
REMARK   21  A    between atoms: _49  and  _50
REMARK   22  A    between atoms: _49  and  _52
REMARK   23  A    between atoms: _52  and  _53
REMARK   24  A    between atoms: _59  and  _61
REMARK   25  A    between atoms: _61  and  _62
REMARK   26  A    between atoms: _61  and  _64
REMARK   27  A    between atoms: _64  and  _65
REMARK   28  A    between atoms: _70  and  _72
REMARK   29  A    between atoms: _72  and  _73
REMARK   30  A    between atoms: _72  and  _75
REMARK   31  A    between atoms: _75  and  _76
REMARK   32  A    between atoms: _81  and  _82
REMARK   33  A    between atoms: _84  and  _86
REMARK   34  A    between atoms: _86  and  _87
REMARK   35  A    between atoms: _86  and  _89
REMARK   36  A    between atoms: _89  and  _90
REMARK   37  A    between atoms: _90  and  _91
REMARK   38  A    between atoms: _91  and  _92
REMARK   39  A    between atoms: _101  and  _103
REMARK   40  A    between atoms: _103  and  _104
REMARK   41  A    between atoms: _103  and  _106
REMARK   42  A    between atoms: _106  and  _107
REMARK   43  A    between atoms: _112  and  _114
REMARK   44  A    between atoms: _114  and  _115
REMARK   45  A    between atoms: _114  and  _117
REMARK   46  A    between atoms: _117  and  _118
REMARK   47  A    between atoms: _120  and  _122
REMARK   48  A    between atoms: _122  and  _123
REMARK   49  A    between atoms: _122  and  _125
REMARK   50  A    between atoms: _125  and  _126
REMARK   51  A    between atoms: _131  and  _133
REMARK   52  A    between atoms: _133  and  _134
REMARK   53  A    between atoms: _133  and  _136
REMARK   54  A    between atoms: _136  and  _137
REMARK   55  A    between atoms: _137  and  _138
REMARK   56  A    between atoms: _138  and  _139
REMARK   57  A    between atoms: _148  and  _150
REMARK   58  A    between atoms: _150  and  _151
REMARK   59  A    between atoms: _150  and  _153
REMARK   60  A    between atoms: _153  and  _154
REMARK   61  A    between atoms: _154  and  _155
REMARK   62  A    between atoms: _155  and  _156
REMARK   63  A    between atoms: _165  and  _167
REMARK   64  A    between atoms: _167  and  _168
REMARK   65  A    between atoms: _170  and  _172
REMARK   66  A    between atoms: _172  and  _173
REMARK   67  A    between atoms: _175  and  _177
REMARK   68  A    between atoms: _177  and  _178
REMARK   69  A    between atoms: _177  and  _180
REMARK   70  A    between atoms: _180  and  _181
REMARK   71  A    between atoms: _186  and  _187
REMARK   72  A    between atoms: _189  and  _191
REMARK   73  A    between atoms: _191  and  _192
REMARK   74  A    between atoms: _194  and  _196
REMARK   75  A    between atoms: _196  and  _197
REMARK   76  A    between atoms: _196  and  _199
REMARK   77  A    between atoms: _199  and  _200
REMARK   78  A    between atoms: _203  and  _205
REMARK   79  A    between atoms: _205  and  _206
REMARK   80  A    between atoms: _205  and  _208
REMARK   81  A    between atoms: _208  and  _209
REMARK   82  A    between atoms: _209  and  _210
REMARK   83  A    between atoms: _210  and  _211
REMARK   84  A    between atoms: _220  and  _222
REMARK   85  A    between atoms: _222  and  _223
REMARK   86  A    between atoms: _225  and  _227
REMARK   87  A    between atoms: _227  and  _228
REMARK   88  A    between atoms: _227  and  _230
REMARK   89  A    between atoms: _230  and  _231
REMARK   90  A    between atoms: _236  and  _237
REMARK                            x       y       z     vdW  Elec       q    Type
REMARK                         _______ _______ _______ _____ _____    ______ ____
ROOT
ATOM      1  C   GLY A   5     -27.474 -15.828  15.709  0.00  0.00    +0.243 C 
ATOM      2  O   GLY A   5     -27.244 -14.676  15.978  0.00  0.00    -0.273 OA
ATOM      3  N   ILE A   6     -27.002 -16.437  14.644  0.00  0.00    -0.297 N 
ATOM      4  H   ILE A   6     -27.191 -17.458  14.578  0.00  0.00    +0.150 HD
ENDROOT
BRANCH   3   5
ATOM      5  CA  ILE A   6     -26.245 -15.851  13.545  0.00  0.00    +0.149 C 
BRANCH   5   6
ATOM      6  C   ILE A   6     -26.898 -14.543  13.070  0.00  0.00    +0.241 C 
ATOM      7  N   ARG A   7     -28.226 -14.489  13.168  0.00  0.00    -0.297 N 
ATOM      8  H   ARG A   7     -28.721 -15.290  13.609  0.00  0.00    +0.150 HD
ATOM      9  O   ILE A   6     -26.209 -13.603  12.686  0.00  0.00    -0.273 OA
BRANCH   7  10
ATOM     10  CA  ARG A   7     -29.025 -13.358  12.686  0.00  0.00    +0.149 C 
BRANCH  10  11
ATOM     11  C   ARG A   7     -29.249 -12.314  13.778  0.00  0.00    +0.241 C 
ATOM     12  N   GLY A   8     -28.461 -12.373  14.850  0.00  0.00    -0.295 N 
ATOM     13  H   GLY A   8     -27.720 -13.100  14.916  0.00  0.00    +0.150 HD
ATOM     14  O   ARG A   7     -30.123 -11.466  13.646  0.00  0.00    -0.273 OA
BRANCH  12  15
ATOM     15  CA  GLY A   8     -28.643 -11.417  15.925  0.00  0.00    +0.176 C 
BRANCH  15  16
ATOM     16  C   GLY A   8     -28.428  -9.957  15.554  0.00  0.00    +0.243 C 
ATOM     17  N   TYR A   9     -29.068  -9.069  16.307  0.00  0.00    -0.298 N 
ATOM     18  H   TYR A   9     -29.792  -9.421  16.965  0.00  0.00    +0.150 HD
ATOM     19  O   GLY A   8     -27.681  -9.651  14.634  0.00  0.00    -0.273 OA
BRANCH  17  20
ATOM     20  CA  TYR A   9     -28.819  -7.630  16.269  0.00  0.00    +0.141 C 
BRANCH  20  21
ATOM     21  C   TYR A   9     -27.539  -7.229  16.944  0.00  0.00    +0.227 C 
ATOM     22  O   TYR A   9     -26.953  -7.997  17.693  0.00  0.00    -0.286 OA
ENDBRANCH  20  21
BRANCH  20  23
ATOM     23  CB  TYR A   9     -29.942  -6.909  17.021  0.00  0.00    +0.054 C 
BRANCH  23  24
ATOM     24  CG  TYR A   9     -30.207  -7.555  18.370  0.00  0.00    -0.020 A 
ATOM     25  CD2 TYR A   9     -29.545  -7.128  19.518  0.00  0.00    -0.001 A 
ATOM     26  CE2 TYR A   9     -29.783  -7.754  20.750  0.00  0.00    +0.036 A 
ATOM     27  CZ  TYR A   9     -30.699  -8.823  20.806  0.00  0.00    +0.134 A 
ATOM     28  CE1 TYR A   9     -31.375  -9.254  19.659  0.00  0.00    +0.036 A 
ATOM     29  CD1 TYR A   9     -31.097  -8.638  18.465  0.00  0.00    -0.001 A 
BRANCH  27  30
ATOM     30  OH  TYR A   9     -30.974  -9.439  21.988  0.00  0.00    -0.506 OA
ATOM     31  HH  TYR A   9     -31.634 -10.161  21.837  0.00  0.00    +0.292 HD
ENDBRANCH  27  30
ENDBRANCH  23  24
ENDBRANCH  20  23
ENDBRANCH  17  20
ENDBRANCH  15  16
ENDBRANCH  12  15
ENDBRANCH  10  11
BRANCH  10  32
ATOM     32  CB  ARG A   7     -30.394 -13.837  12.225  0.00  0.00    +0.033 C 
BRANCH  32  33
ATOM     33  CG  ARG A   7     -30.408 -14.658  10.951  0.00  0.00    +0.045 C 
BRANCH  33  34
ATOM     34  CD  ARG A   7     -31.838 -15.020  10.577  0.00  0.00    +0.174 C 
BRANCH  34  35
ATOM     35  NE  ARG A   7     -31.809 -15.498   9.225  0.00  0.00    -0.265 N 
ATOM     36  CZ  ARG A   7     -31.416 -16.734   8.906  0.00  0.00    +0.342 C 
ATOM     37  NH2 ARG A   7     -31.026 -17.599   9.863  0.00  0.00    -0.292 N 
ATOM     38 HH21 ARG A   7     -31.029 -17.306  10.861  0.00  0.00    +0.255 HD
ATOM     39 HH22 ARG A   7     -30.722 -18.559   9.604  0.00  0.00    +0.255 HD
ATOM     40  NH1 ARG A   7     -31.367 -17.094   7.645  0.00  0.00    -0.292 N 
ATOM     41 HH11 ARG A   7     -31.062 -18.055   7.390  0.00  0.00    +0.255 HD
ATOM     42 HH12 ARG A   7     -31.633 -16.418   6.901  0.00  0.00    +0.255 HD
ATOM     43  HE  ARG A   7     -32.106 -14.856   8.462  0.00  0.00    +0.259 HD
ENDBRANCH  34  35
ENDBRANCH  33  34
ENDBRANCH  32  33
ENDBRANCH  10  32
ENDBRANCH   7  10
ENDBRANCH   5   6
BRANCH   5  44
ATOM     44  CB  ILE A   6     -26.148 -16.978  12.452  0.00  0.00    +0.027 C 
ATOM     45  CG2 ILE A   6     -25.778 -16.495  11.056  0.00  0.00    +0.002 C 
BRANCH  44  46
ATOM     46  CG1 ILE A   6     -25.074 -17.962  12.909  0.00  0.00    +0.002 C 
ATOM     47  CD1 ILE A   6     -23.967 -17.264  13.693  0.00  0.00    +0.000 C 
ENDBRANCH  44  46
ENDBRANCH   5  44
ENDBRANCH   3   5
BRANCH   1  48
ATOM     48  CA  GLY A   5     -28.334 -16.697  16.602  0.00  0.00    +0.176 C 
BRANCH  48  51
ATOM     49  C   TYR A   4     -28.868 -16.866  18.966  0.00  0.00    +0.241 C 
ATOM     50  O   TYR A   4     -28.419 -18.016  19.057  0.00  0.00    -0.273 OA
ATOM     51  N   GLY A   5     -28.755 -16.128  17.866  0.00  0.00    -0.295 N 
ATOM     52  H   GLY A   5     -28.975 -15.113  17.914  0.00  0.00    +0.150 HD
BRANCH  49  53
ATOM     53  CA  TYR A   4     -29.614 -16.246  20.150  0.00  0.00    +0.153 C 
BRANCH  53  56
ATOM     54  C   GLY A   3     -29.017 -13.888  20.470  0.00  0.00    +0.243 C 
ATOM     55  O   GLY A   3     -27.886 -14.183  20.908  0.00  0.00    -0.273 OA
ATOM     56  N   TYR A   4     -29.873 -14.800  20.000  0.00  0.00    -0.297 N 
ATOM     57  H   TYR A   4     -30.739 -14.485  19.519  0.00  0.00    +0.150 HD
BRANCH  54  58
ATOM     58  CA  GLY A   3     -29.488 -12.450  20.442  0.00  0.00    +0.176 C 
BRANCH  58  60
ATOM     59  C   GLY A   2     -27.391 -11.219  20.149  0.00  0.00    +0.243 C 
ATOM     60  N   GLY A   3     -28.450 -11.526  20.900  0.00  0.00    -0.295 N 
ATOM     61  H   GLY A   3     -28.541 -11.094  21.842  0.00  0.00    +0.150 HD
ATOM     62  O   GLY A   2     -27.196 -11.717  19.031  0.00  0.00    -0.273 OA
BRANCH  59  63
ATOM     63  CA  GLY A   2     -26.424 -10.181  20.713  0.00  0.00    +0.176 C 
BRANCH  63  66
ATOM     64  C   ARG A   1     -24.382  -9.922  19.417  0.00  0.00    +0.238 C 
ATOM     65  O   ARG A   1     -23.814 -10.731  20.128  0.00  0.00    -0.274 OA
ATOM     66  N   GLY A   2     -25.633  -9.529  19.663  0.00  0.00    -0.296 N 
ATOM     67  H   GLY A   2     -26.050  -8.756  19.107  0.00  0.00    +0.150 HD
BRANCH  64  68
ATOM     68  CA  ARG A   1     -23.654  -9.278  18.250  0.00  0.00    +0.145 C 
BRANCH  68  69
ATOM     69  N   ARG A   1     -22.394  -8.668  18.610  0.00  0.00    -0.238 NA
ATOM     70  H   ARG A   1     -21.502  -9.193  18.508  0.00  0.00    +0.142 HD
ENDBRANCH  68  69
BRANCH  68  71
ATOM     71  CB  ARG A   1     -23.471 -10.287  17.146  0.00  0.00    +0.030 C 
BRANCH  71  72
ATOM     72  CG  ARG A   1     -24.868 -10.627  16.658  0.00  0.00    +0.045 C 
BRANCH  72  73
ATOM     73  CD  ARG A   1     -25.079 -11.933  15.965  0.00  0.00    +0.174 C 
BRANCH  73  74
ATOM     74  NE  ARG A   1     -24.422 -13.142  16.437  0.00  0.00    -0.265 N 
ATOM     75  CZ  ARG A   1     -24.829 -13.984  17.386  0.00  0.00    +0.342 C 
ATOM     76  NH2 ARG A   1     -25.867 -13.776  18.161  0.00  0.00    -0.292 N 
ATOM     77 HH21 ARG A   1     -26.127 -14.479  18.882  0.00  0.00    +0.255 HD
ATOM     78 HH22 ARG A   1     -26.430 -12.908  18.054  0.00  0.00    +0.255 HD
ATOM     79  NH1 ARG A   1     -24.143 -15.058  17.544  0.00  0.00    -0.292 N 
ATOM     80 HH11 ARG A   1     -24.418 -15.749  18.271  0.00  0.00    +0.255 HD
ATOM     81 HH12 ARG A   1     -23.312 -15.237  16.945  0.00  0.00    +0.255 HD
ATOM     82  HE  ARG A   1     -23.521 -13.379  15.975  0.00  0.00    +0.259 HD
ENDBRANCH  73  74
ENDBRANCH  72  73
ENDBRANCH  71  72
ENDBRANCH  68  71
ENDBRANCH  64  68
ENDBRANCH  63  66
ENDBRANCH  59  63
ENDBRANCH  58  60
ENDBRANCH  54  58
ENDBRANCH  53  56
BRANCH  53  83
ATOM     83  CB  TYR A   4     -30.927 -16.996  20.313  0.00  0.00    +0.055 C 
BRANCH  83  84
ATOM     84  CG  TYR A   4     -31.630 -16.697  21.583  0.00  0.00    -0.020 A 
ATOM     85  CD2 TYR A   4     -31.065 -17.079  22.839  0.00  0.00    -0.001 A 
ATOM     86  CE2 TYR A   4     -31.721 -16.790  24.027  0.00  0.00    +0.036 A 
ATOM     87  CZ  TYR A   4     -32.960 -16.123  23.980  0.00  0.00    +0.134 A 
ATOM     88  CE1 TYR A   4     -33.520 -15.743  22.760  0.00  0.00    +0.036 A 
ATOM     89  CD1 TYR A   4     -32.861 -16.037  21.572  0.00  0.00    -0.001 A 
BRANCH  87  90
ATOM     90  OH  TYR A   4     -33.621 -15.827  25.159  0.00  0.00    -0.506 OA
ATOM     91  HH  TYR A   4     -33.092 -16.163  25.926  0.00  0.00    +0.292 HD
ENDBRANCH  87  90
ENDBRANCH  83  84
ENDBRANCH  53  83
ENDBRANCH  49  53
ENDBRANCH  48  51
ENDBRANCH   1  48
TORSDOF 34
REMARK  Name = ../refined-set-2016/4nja/4nja_pocket.pdb
REMARK  90 active torsions:
REMARK  status: ('A' for Active; 'I' for Inactive)
REMARK    1  A    between atoms: _1  and  _3
REMARK    2  A    between atoms: _3  and  _4
REMARK    3  A    between atoms: _3  and  _6
REMARK    4  A    between atoms: _6  and  _7
REMARK    5  A    between atoms: _9  and  _11
REMARK    6  A    between atoms: _11  and  _12
REMARK    7  A    between atoms: _11  and  _14
REMARK    8  A    between atoms: _14  and  _15
REMARK    9  A    between atoms: _20  and  _21
REMARK   10  A    between atoms: _23  and  _25
REMARK   11  A    between atoms: _25  and  _26
REMARK   12  A    between atoms: _28  and  _30
REMARK   13  A    between atoms: _30  and  _31
REMARK   14  A    between atoms: _30  and  _33
REMARK   15  A    between atoms: _33  and  _34
REMARK   16  A    between atoms: _39  and  _41
REMARK   17  A    between atoms: _41  and  _42
REMARK   18  A    between atoms: _41  and  _44
REMARK   19  A    between atoms: _44  and  _45
REMARK   20  A    between atoms: _47  and  _49
REMARK   21  A    between atoms: _49  and  _50
REMARK   22  A    between atoms: _49  and  _52
REMARK   23  A    between atoms: _52  and  _53
REMARK   24  A    between atoms: _59  and  _61
REMARK   25  A    between atoms: _61  and  _62
REMARK   26  A    between atoms: _61  and  _64
REMARK   27  A    between atoms: _64  and  _65
REMARK   28  A    between atoms: _70  and  _72
REMARK   29  A    between atoms: _72  and  _73
REMARK   30  A    between atoms: _72  and  _75
REMARK   31  A    between atoms: _75  and  _76
REMARK   32  A    between atoms: _81  and  _82
REMARK   33  A    between atoms: _84  and  _86
REMARK   34  A    between atoms: _86  and  _87
REMARK   35  A    between atoms: _86  and  _89
REMARK   36  A    between atoms: _89  and  _90
REMARK   37  A    between atoms: _90  and  _91
REMARK   38  A    between atoms: _91  and  _92
REMARK   39  A    between atoms: _101  and  _103
REMARK   40  A    between atoms: _103  and  _104
REMARK   41  A    between atoms: _103  and  _106
REMARK   42  A    between atoms: _106  and  _107
REMARK   43  A    between atoms: _112  and  _114
REMARK   44  A    between atoms: _114  and  _115
REMARK   45  A    between atoms: _114  and  _117
REMARK   46  A    between atoms: _117  and  _118
REMARK   47  A    between atoms: _120  and  _122
REMARK   48  A    between atoms: _122  and  _123
REMARK   49  A    between atoms: _122  and  _125
REMARK   50  A    between atoms: _125  and  _126
REMARK   51  A    between atoms: _131  and  _133
REMARK   52  A    between atoms: _133  and  _134
REMARK   53  A    between atoms: _133  and  _136
REMARK   54  A    between atoms: _136  and  _137
REMARK   55  A    between atoms: _137  and  _138
REMARK   56  A    between atoms: _138  and  _139
REMARK   57  A    between atoms: _148  and  _150
REMARK   58  A    between atoms: _150  and  _151
REMARK   59  A    between atoms: _150  and  _153
REMARK   60  A    between atoms: _153  and  _154
REMARK   61  A    between atoms: _154  and  _155
REMARK   62  A    between atoms: _155  and  _156
REMARK   63  A    between atoms: _165  and  _167
REMARK   64  A    between atoms: _167  and  _168
REMARK   65  A    between atoms: _170  and  _172
REMARK   66  A    between atoms: _172  and  _173
REMARK   67  A    between atoms: _175  and  _177
REMARK   68  A    between atoms: _177  and  _178
REMARK   69  A    between atoms: _177  and  _180
REMARK   70  A    between atoms: _180  and  _181
REMARK   71  A    between atoms: _186  and  _187
REMARK   72  A    between atoms: _189  and  _191
REMARK   73  A    between atoms: _191  and  _192
REMARK   74  A    between atoms: _194  and  _196
REMARK   75  A    between atoms: _196  and  _197
REMARK   76  A    between atoms: _196  and  _199
REMARK   77  A    between atoms: _199  and  _200
REMARK   78  A    between atoms: _203  and  _205
REMARK   79  A    between atoms: _205  and  _206
REMARK   80  A    between atoms: _205  and  _208
REMARK   81  A    between atoms: _208  and  _209
REMARK   82  A    between atoms: _209  and  _210
REMARK   83  A    between atoms: _210  and  _211
REMARK   84  A    between atoms: _220  and  _222
REMARK   85  A    between atoms: _222  and  _223
REMARK   86  A    between atoms: _225  and  _227
REMARK   87  A    between atoms: _227  and  _228
REMARK   88  A    between atoms: _227  and  _230
REMARK   89  A    between atoms: _230  and  _231
REMARK   90  A    between atoms: _236  and  _237
REMARK                            x       y       z     vdW  Elec       q    Type
REMARK                         _______ _______ _______ _____ _____    ______ ____
ROOT
ATOM      1  O   HOH     1     -35.848 -11.874  23.121  0.00  0.00    +0.000 OA
ENDROOT
TORSDOF 0
REMARK  Name = ../refined-set-2016/4nja/4nja_pocket.pdb
REMARK  90 active torsions:
REMARK  status: ('A' for Active; 'I' for Inactive)
REMARK    1  A    between atoms: _1  and  _3
REMARK    2  A    between atoms: _3  and  _4
REMARK    3  A    between atoms: _3  and  _6
REMARK    4  A    between atoms: _6  and  _7
REMARK    5  A    between atoms: _9  and  _11
REMARK    6  A    between atoms: _11  and  _12
REMARK    7  A    between atoms: _11  and  _14
REMARK    8  A    between atoms: _14  and  _15
REMARK    9  A    between atoms: _20  and  _21
REMARK   10  A    between atoms: _23  and  _25
REMARK   11  A    between atoms: _25  and  _26
REMARK   12  A    between atoms: _28  and  _30
REMARK   13  A    between atoms: _30  and  _31
REMARK   14  A    between atoms: _30  and  _33
REMARK   15  A    between atoms: _33  and  _34
REMARK   16  A    between atoms: _39  and  _41
REMARK   17  A    between atoms: _41  and  _42
REMARK   18  A    between atoms: _41  and  _44
REMARK   19  A    between atoms: _44  and  _45
REMARK   20  A    between atoms: _47  and  _49
REMARK   21  A    between atoms: _49  and  _50
REMARK   22  A    between atoms: _49  and  _52
REMARK   23  A    between atoms: _52  and  _53
REMARK   24  A    between atoms: _59  and  _61
REMARK   25  A    between atoms: _61  and  _62
REMARK   26  A    between atoms: _61  and  _64
REMARK   27  A    between atoms: _64  and  _65
REMARK   28  A    between atoms: _70  and  _72
REMARK   29  A    between atoms: _72  and  _73
REMARK   30  A    between atoms: _72  and  _75
REMARK   31  A    between atoms: _75  and  _76
REMARK   32  A    between atoms: _81  and  _82
REMARK   33  A    between atoms: _84  and  _86
REMARK   34  A    between atoms: _86  and  _87
REMARK   35  A    between atoms: _86  and  _89
REMARK   36  A    between atoms: _89  and  _90
REMARK   37  A    between atoms: _90  and  _91
REMARK   38  A    between atoms: _91  and  _92
REMARK   39  A    between atoms: _101  and  _103
REMARK   40  A    between atoms: _103  and  _104
REMARK   41  A    between atoms: _103  and  _106
REMARK   42  A    between atoms: _106  and  _107
REMARK   43  A    between atoms: _112  and  _114
REMARK   44  A    between atoms: _114  and  _115
REMARK   45  A    between atoms: _114  and  _117
REMARK   46  A    between atoms: _117  and  _118
REMARK   47  A    between atoms: _120  and  _122
REMARK   48  A    between atoms: _122  and  _123
REMARK   49  A    between atoms: _122  and  _125
REMARK   50  A    between atoms: _125  and  _126
REMARK   51  A    between atoms: _131  and  _133
REMARK   52  A    between atoms: _133  and  _134
REMARK   53  A    between atoms: _133  and  _136
REMARK   54  A    between atoms: _136  and  _137
REMARK   55  A    between atoms: _137  and  _138
REMARK   56  A    between atoms: _138  and  _139
REMARK   57  A    between atoms: _148  and  _150
REMARK   58  A    between atoms: _150  and  _151
REMARK   59  A    between atoms: _150  and  _153
REMARK   60  A    between atoms: _153  and  _154
REMARK   61  A    between atoms: _154  and  _155
REMARK   62  A    between atoms: _155  and  _156
REMARK   63  A    between atoms: _165  and  _167
REMARK   64  A    between atoms: _167  and  _168
REMARK   65  A    between atoms: _170  and  _172
REMARK   66  A    between atoms: _172  and  _173
REMARK   67  A    between atoms: _175  and  _177
REMARK   68  A    between atoms: _177  and  _178
REMARK   69  A    between atoms: _177  and  _180
REMARK   70  A    between atoms: _180  and  _181
REMARK   71  A    between atoms: _186  and  _187
REMARK   72  A    between atoms: _189  and  _191
REMARK   73  A    between atoms: _191  and  _192
REMARK   74  A    between atoms: _194  and  _196
REMARK   75  A    between atoms: _196  and  _197
REMARK   76  A    between atoms: _196  and  _199
REMARK   77  A    between atoms: _199  and  _200
REMARK   78  A    between atoms: _203  and  _205
REMARK   79  A    between atoms: _205  and  _206
REMARK   80  A    between atoms: _205  and  _208
REMARK   81  A    between atoms: _208  and  _209
REMARK   82  A    between atoms: _209  and  _210
REMARK   83  A    between atoms: _210  and  _211
REMARK   84  A    between atoms: _220  and  _222
REMARK   85  A    between atoms: _222  and  _223
REMARK   86  A    between atoms: _225  and  _227
REMARK   87  A    between atoms: _227  and  _228
REMARK   88  A    between atoms: _227  and  _230
REMARK   89  A    between atoms: _230  and  _231
REMARK   90  A    between atoms: _236  and  _237
REMARK                            x       y       z     vdW  Elec       q    Type
REMARK                         _______ _______ _______ _____ _____    ______ ____
ROOT
ATOM      1  O   HOH     1     -38.188 -19.795   7.652  0.00  0.00    +0.000 OA
ENDROOT
TORSDOF 0
REMARK  Name = ../refined-set-2016/4nja/4nja_pocket.pdb
REMARK  90 active torsions:
REMARK  status: ('A' for Active; 'I' for Inactive)
REMARK    1  A    between atoms: _1  and  _3
REMARK    2  A    between atoms: _3  and  _4
REMARK    3  A    between atoms: _3  and  _6
REMARK    4  A    between atoms: _6  and  _7
REMARK    5  A    between atoms: _9  and  _11
REMARK    6  A    between atoms: _11  and  _12
REMARK    7  A    between atoms: _11  and  _14
REMARK    8  A    between atoms: _14  and  _15
REMARK    9  A    between atoms: _20  and  _21
REMARK   10  A    between atoms: _23  and  _25
REMARK   11  A    between atoms: _25  and  _26
REMARK   12  A    between atoms: _28  and  _30
REMARK   13  A    between atoms: _30  and  _31
REMARK   14  A    between atoms: _30  and  _33
REMARK   15  A    between atoms: _33  and  _34
REMARK   16  A    between atoms: _39  and  _41
REMARK   17  A    between atoms: _41  and  _42
REMARK   18  A    between atoms: _41  and  _44
REMARK   19  A    between atoms: _44  and  _45
REMARK   20  A    between atoms: _47  and  _49
REMARK   21  A    between atoms: _49  and  _50
REMARK   22  A    between atoms: _49  and  _52
REMARK   23  A    between atoms: _52  and  _53
REMARK   24  A    between atoms: _59  and  _61
REMARK   25  A    between atoms: _61  and  _62
REMARK   26  A    between atoms: _61  and  _64
REMARK   27  A    between atoms: _64  and  _65
REMARK   28  A    between atoms: _70  and  _72
REMARK   29  A    between atoms: _72  and  _73
REMARK   30  A    between atoms: _72  and  _75
REMARK   31  A    between atoms: _75  and  _76
REMARK   32  A    between atoms: _81  and  _82
REMARK   33  A    between atoms: _84  and  _86
REMARK   34  A    between atoms: _86  and  _87
REMARK   35  A    between atoms: _86  and  _89
REMARK   36  A    between atoms: _89  and  _90
REMARK   37  A    between atoms: _90  and  _91
REMARK   38  A    between atoms: _91  and  _92
REMARK   39  A    between atoms: _101  and  _103
REMARK   40  A    between atoms: _103  and  _104
REMARK   41  A    between atoms: _103  and  _106
REMARK   42  A    between atoms: _106  and  _107
REMARK   43  A    between atoms: _112  and  _114
REMARK   44  A    between atoms: _114  and  _115
REMARK   45  A    between atoms: _114  and  _117
REMARK   46  A    between atoms: _117  and  _118
REMARK   47  A    between atoms: _120  and  _122
REMARK   48  A    between atoms: _122  and  _123
REMARK   49  A    between atoms: _122  and  _125
REMARK   50  A    between atoms: _125  and  _126
REMARK   51  A    between atoms: _131  and  _133
REMARK   52  A    between atoms: _133  and  _134
REMARK   53  A    between atoms: _133  and  _136
REMARK   54  A    between atoms: _136  and  _137
REMARK   55  A    between atoms: _137  and  _138
REMARK   56  A    between atoms: _138  and  _139
REMARK   57  A    between atoms: _148  and  _150
REMARK   58  A    between atoms: _150  and  _151
REMARK   59  A    between atoms: _150  and  _153
REMARK   60  A    between atoms: _153  and  _154
REMARK   61  A    between atoms: _154  and  _155
REMARK   62  A    between atoms: _155  and  _156
REMARK   63  A    between atoms: _165  and  _167
REMARK   64  A    between atoms: _167  and  _168
REMARK   65  A    between atoms: _170  and  _172
REMARK   66  A    between atoms: _172  and  _173
REMARK   67  A    between atoms: _175  and  _177
REMARK   68  A    between atoms: _177  and  _178
REMARK   69  A    between atoms: _177  and  _180
REMARK   70  A    between atoms: _180  and  _181
REMARK   71  A    between atoms: _186  and  _187
REMARK   72  A    between atoms: _189  and  _191
REMARK   73  A    between atoms: _191  and  _192
REMARK   74  A    between atoms: _194  and  _196
REMARK   75  A    between atoms: _196  and  _197
REMARK   76  A    between atoms: _196  and  _199
REMARK   77  A    between atoms: _199  and  _200
REMARK   78  A    between atoms: _203  and  _205
REMARK   79  A    between atoms: _205  and  _206
REMARK   80  A    between atoms: _205  and  _208
REMARK   81  A    between atoms: _208  and  _209
REMARK   82  A    between atoms: _209  and  _210
REMARK   83  A    between atoms: _210  and  _211
REMARK   84  A    between atoms: _220  and  _222
REMARK   85  A    between atoms: _222  and  _223
REMARK   86  A    between atoms: _225  and  _227
REMARK   87  A    between atoms: _227  and  _228
REMARK   88  A    between atoms: _227  and  _230
REMARK   89  A    between atoms: _230  and  _231
REMARK   90  A    between atoms: _236  and  _237
REMARK                            x       y       z     vdW  Elec       q    Type
REMARK                         _______ _______ _______ _____ _____    ______ ____
ROOT
ATOM      1  O   HOH     1     -31.967 -10.549  15.457  0.00  0.00    +0.000 OA
ENDROOT
TORSDOF 0
REMARK  Name = ../refined-set-2016/4nja/4nja_pocket.pdb
REMARK  90 active torsions:
REMARK  status: ('A' for Active; 'I' for Inactive)
REMARK    1  A    between atoms: _1  and  _3
REMARK    2  A    between atoms: _3  and  _4
REMARK    3  A    between atoms: _3  and  _6
REMARK    4  A    between atoms: _6  and  _7
REMARK    5  A    between atoms: _9  and  _11
REMARK    6  A    between atoms: _11  and  _12
REMARK    7  A    between atoms: _11  and  _14
REMARK    8  A    between atoms: _14  and  _15
REMARK    9  A    between atoms: _20  and  _21
REMARK   10  A    between atoms: _23  and  _25
REMARK   11  A    between atoms: _25  and  _26
REMARK   12  A    between atoms: _28  and  _30
REMARK   13  A    between atoms: _30  and  _31
REMARK   14  A    between atoms: _30  and  _33
REMARK   15  A    between atoms: _33  and  _34
REMARK   16  A    between atoms: _39  and  _41
REMARK   17  A    between atoms: _41  and  _42
REMARK   18  A    between atoms: _41  and  _44
REMARK   19  A    between atoms: _44  and  _45
REMARK   20  A    between atoms: _47  and  _49
REMARK   21  A    between atoms: _49  and  _50
REMARK   22  A    between atoms: _49  and  _52
REMARK   23  A    between atoms: _52  and  _53
REMARK   24  A    between atoms: _59  and  _61
REMARK   25  A    between atoms: _61  and  _62
REMARK   26  A    between atoms: _61  and  _64
REMARK   27  A    between atoms: _64  and  _65
REMARK   28  A    between atoms: _70  and  _72
REMARK   29  A    between atoms: _72  and  _73
REMARK   30  A    between atoms: _72  and  _75
REMARK   31  A    between atoms: _75  and  _76
REMARK   32  A    between atoms: _81  and  _82
REMARK   33  A    between atoms: _84  and  _86
REMARK   34  A    between atoms: _86  and  _87
REMARK   35  A    between atoms: _86  and  _89
REMARK   36  A    between atoms: _89  and  _90
REMARK   37  A    between atoms: _90  and  _91
REMARK   38  A    between atoms: _91  and  _92
REMARK   39  A    between atoms: _101  and  _103
REMARK   40  A    between atoms: _103  and  _104
REMARK   41  A    between atoms: _103  and  _106
REMARK   42  A    between atoms: _106  and  _107
REMARK   43  A    between atoms: _112  and  _114
REMARK   44  A    between atoms: _114  and  _115
REMARK   45  A    between atoms: _114  and  _117
REMARK   46  A    between atoms: _117  and  _118
REMARK   47  A    between atoms: _120  and  _122
REMARK   48  A    between atoms: _122  and  _123
REMARK   49  A    between atoms: _122  and  _125
REMARK   50  A    between atoms: _125  and  _126
REMARK   51  A    between atoms: _131  and  _133
REMARK   52  A    between atoms: _133  and  _134
REMARK   53  A    between atoms: _133  and  _136
REMARK   54  A    between atoms: _136  and  _137
REMARK   55  A    between atoms: _137  and  _138
REMARK   56  A    between atoms: _138  and  _139
REMARK   57  A    between atoms: _148  and  _150
REMARK   58  A    between atoms: _150  and  _151
REMARK   59  A    between atoms: _150  and  _153
REMARK   60  A    between atoms: _153  and  _154
REMARK   61  A    between atoms: _154  and  _155
REMARK   62  A    between atoms: _155  and  _156
REMARK   63  A    between atoms: _165  and  _167
REMARK   64  A    between atoms: _167  and  _168
REMARK   65  A    between atoms: _170  and  _172
REMARK   66  A    between atoms: _172  and  _173
REMARK   67  A    between atoms: _175  and  _177
REMARK   68  A    between atoms: _177  and  _178
REMARK   69  A    between atoms: _177  and  _180
REMARK   70  A    between atoms: _180  and  _181
REMARK   71  A    between atoms: _186  and  _187
REMARK   72  A    between atoms: _189  and  _191
REMARK   73  A    between atoms: _191  and  _192
REMARK   74  A    between atoms: _194  and  _196
REMARK   75  A    between atoms: _196  and  _197
REMARK   76  A    between atoms: _196  and  _199
REMARK   77  A    between atoms: _199  and  _200
REMARK   78  A    between atoms: _203  and  _205
REMARK   79  A    between atoms: _205  and  _206
REMARK   80  A    between atoms: _205  and  _208
REMARK   81  A    between atoms: _208  and  _209
REMARK   82  A    between atoms: _209  and  _210
REMARK   83  A    between atoms: _210  and  _211
REMARK   84  A    between atoms: _220  and  _222
REMARK   85  A    between atoms: _222  and  _223
REMARK   86  A    between atoms: _225  and  _227
REMARK   87  A    between atoms: _227  and  _228
REMARK   88  A    between atoms: _227  and  _230
REMARK   89  A    between atoms: _230  and  _231
REMARK   90  A    between atoms: _236  and  _237
REMARK                            x       y       z     vdW  Elec       q    Type
REMARK                         _______ _______ _______ _____ _____    ______ ____
ROOT
ATOM      1  O   HOH     1     -23.545 -13.490  11.556  0.00  0.00    +0.000 OA
ENDROOT
TORSDOF 0
REMARK  Name = ../refined-set-2016/4nja/4nja_pocket.pdb
REMARK  90 active torsions:
REMARK  status: ('A' for Active; 'I' for Inactive)
REMARK    1  A    between atoms: _1  and  _3
REMARK    2  A    between atoms: _3  and  _4
REMARK    3  A    between atoms: _3  and  _6
REMARK    4  A    between atoms: _6  and  _7
REMARK    5  A    between atoms: _9  and  _11
REMARK    6  A    between atoms: _11  and  _12
REMARK    7  A    between atoms: _11  and  _14
REMARK    8  A    between atoms: _14  and  _15
REMARK    9  A    between atoms: _20  and  _21
REMARK   10  A    between atoms: _23  and  _25
REMARK   11  A    between atoms: _25  and  _26
REMARK   12  A    between atoms: _28  and  _30
REMARK   13  A    between atoms: _30  and  _31
REMARK   14  A    between atoms: _30  and  _33
REMARK   15  A    between atoms: _33  and  _34
REMARK   16  A    between atoms: _39  and  _41
REMARK   17  A    between atoms: _41  and  _42
REMARK   18  A    between atoms: _41  and  _44
REMARK   19  A    between atoms: _44  and  _45
REMARK   20  A    between atoms: _47  and  _49
REMARK   21  A    between atoms: _49  and  _50
REMARK   22  A    between atoms: _49  and  _52
REMARK   23  A    between atoms: _52  and  _53
REMARK   24  A    between atoms: _59  and  _61
REMARK   25  A    between atoms: _61  and  _62
REMARK   26  A    between atoms: _61  and  _64
REMARK   27  A    between atoms: _64  and  _65
REMARK   28  A    between atoms: _70  and  _72
REMARK   29  A    between atoms: _72  and  _73
REMARK   30  A    between atoms: _72  and  _75
REMARK   31  A    between atoms: _75  and  _76
REMARK   32  A    between atoms: _81  and  _82
REMARK   33  A    between atoms: _84  and  _86
REMARK   34  A    between atoms: _86  and  _87
REMARK   35  A    between atoms: _86  and  _89
REMARK   36  A    between atoms: _89  and  _90
REMARK   37  A    between atoms: _90  and  _91
REMARK   38  A    between atoms: _91  and  _92
REMARK   39  A    between atoms: _101  and  _103
REMARK   40  A    between atoms: _103  and  _104
REMARK   41  A    between atoms: _103  and  _106
REMARK   42  A    between atoms: _106  and  _107
REMARK   43  A    between atoms: _112  and  _114
REMARK   44  A    between atoms: _114  and  _115
REMARK   45  A    between atoms: _114  and  _117
REMARK   46  A    between atoms: _117  and  _118
REMARK   47  A    between atoms: _120  and  _122
REMARK   48  A    between atoms: _122  and  _123
REMARK   49  A    between atoms: _122  and  _125
REMARK   50  A    between atoms: _125  and  _126
REMARK   51  A    between atoms: _131  and  _133
REMARK   52  A    between atoms: _133  and  _134
REMARK   53  A    between atoms: _133  and  _136
REMARK   54  A    between atoms: _136  and  _137
REMARK   55  A    between atoms: _137  and  _138
REMARK   56  A    between atoms: _138  and  _139
REMARK   57  A    between atoms: _148  and  _150
REMARK   58  A    between atoms: _150  and  _151
REMARK   59  A    between atoms: _150  and  _153
REMARK   60  A    between atoms: _153  and  _154
REMARK   61  A    between atoms: _154  and  _155
REMARK   62  A    between atoms: _155  and  _156
REMARK   63  A    between atoms: _165  and  _167
REMARK   64  A    between atoms: _167  and  _168
REMARK   65  A    between atoms: _170  and  _172
REMARK   66  A    between atoms: _172  and  _173
REMARK   67  A    between atoms: _175  and  _177
REMARK   68  A    between atoms: _177  and  _178
REMARK   69  A    between atoms: _177  and  _180
REMARK   70  A    between atoms: _180  and  _181
REMARK   71  A    between atoms: _186  and  _187
REMARK   72  A    between atoms: _189  and  _191
REMARK   73  A    between atoms: _191  and  _192
REMARK   74  A    between atoms: _194  and  _196
REMARK   75  A    between atoms: _196  and  _197
REMARK   76  A    between atoms: _196  and  _199
REMARK   77  A    between atoms: _199  and  _200
REMARK   78  A    between atoms: _203  and  _205
REMARK   79  A    between atoms: _205  and  _206
REMARK   80  A    between atoms: _205  and  _208
REMARK   81  A    between atoms: _208  and  _209
REMARK   82  A    between atoms: _209  and  _210
REMARK   83  A    between atoms: _210  and  _211
REMARK   84  A    between atoms: _220  and  _222
REMARK   85  A    between atoms: _222  and  _223
REMARK   86  A    between atoms: _225  and  _227
REMARK   87  A    between atoms: _227  and  _228
REMARK   88  A    between atoms: _227  and  _230
REMARK   89  A    between atoms: _230  and  _231
REMARK   90  A    between atoms: _236  and  _237
REMARK                            x       y       z     vdW  Elec       q    Type
REMARK                         _______ _______ _______ _____ _____    ______ ____
ROOT
ATOM      1  O   HOH     1     -22.536 -13.434  14.279  0.00  0.00    +0.000 OA
ENDROOT
TORSDOF 0
REMARK  Name = ../refined-set-2016/4nja/4nja_pocket.pdb
REMARK  90 active torsions:
REMARK  status: ('A' for Active; 'I' for Inactive)
REMARK    1  A    between atoms: _1  and  _3
REMARK    2  A    between atoms: _3  and  _4
REMARK    3  A    between atoms: _3  and  _6
REMARK    4  A    between atoms: _6  and  _7
REMARK    5  A    between atoms: _9  and  _11
REMARK    6  A    between atoms: _11  and  _12
REMARK    7  A    between atoms: _11  and  _14
REMARK    8  A    between atoms: _14  and  _15
REMARK    9  A    between atoms: _20  and  _21
REMARK   10  A    between atoms: _23  and  _25
REMARK   11  A    between atoms: _25  and  _26
REMARK   12  A    between atoms: _28  and  _30
REMARK   13  A    between atoms: _30  and  _31
REMARK   14  A    between atoms: _30  and  _33
REMARK   15  A    between atoms: _33  and  _34
REMARK   16  A    between atoms: _39  and  _41
REMARK   17  A    between atoms: _41  and  _42
REMARK   18  A    between atoms: _41  and  _44
REMARK   19  A    between atoms: _44  and  _45
REMARK   20  A    between atoms: _47  and  _49
REMARK   21  A    between atoms: _49  and  _50
REMARK   22  A    between atoms: _49  and  _52
REMARK   23  A    between atoms: _52  and  _53
REMARK   24  A    between atoms: _59  and  _61
REMARK   25  A    between atoms: _61  and  _62
REMARK   26  A    between atoms: _61  and  _64
REMARK   27  A    between atoms: _64  and  _65
REMARK   28  A    between atoms: _70  and  _72
REMARK   29  A    between atoms: _72  and  _73
REMARK   30  A    between atoms: _72  and  _75
REMARK   31  A    between atoms: _75  and  _76
REMARK   32  A    between atoms: _81  and  _82
REMARK   33  A    between atoms: _84  and  _86
REMARK   34  A    between atoms: _86  and  _87
REMARK   35  A    between atoms: _86  and  _89
REMARK   36  A    between atoms: _89  and  _90
REMARK   37  A    between atoms: _90  and  _91
REMARK   38  A    between atoms: _91  and  _92
REMARK   39  A    between atoms: _101  and  _103
REMARK   40  A    between atoms: _103  and  _104
REMARK   41  A    between atoms: _103  and  _106
REMARK   42  A    between atoms: _106  and  _107
REMARK   43  A    between atoms: _112  and  _114
REMARK   44  A    between atoms: _114  and  _115
REMARK   45  A    between atoms: _114  and  _117
REMARK   46  A    between atoms: _117  and  _118
REMARK   47  A    between atoms: _120  and  _122
REMARK   48  A    between atoms: _122  and  _123
REMARK   49  A    between atoms: _122  and  _125
REMARK   50  A    between atoms: _125  and  _126
REMARK   51  A    between atoms: _131  and  _133
REMARK   52  A    between atoms: _133  and  _134
REMARK   53  A    between atoms: _133  and  _136
REMARK   54  A    between atoms: _136  and  _137
REMARK   55  A    between atoms: _137  and  _138
REMARK   56  A    between atoms: _138  and  _139
REMARK   57  A    between atoms: _148  and  _150
REMARK   58  A    between atoms: _150  and  _151
REMARK   59  A    between atoms: _150  and  _153
REMARK   60  A    between atoms: _153  and  _154
REMARK   61  A    between atoms: _154  and  _155
REMARK   62  A    between atoms: _155  and  _156
REMARK   63  A    between atoms: _165  and  _167
REMARK   64  A    between atoms: _167  and  _168
REMARK   65  A    between atoms: _170  and  _172
REMARK   66  A    between atoms: _172  and  _173
REMARK   67  A    between atoms: _175  and  _177
REMARK   68  A    between atoms: _177  and  _178
REMARK   69  A    between atoms: _177  and  _180
REMARK   70  A    between atoms: _180  and  _181
REMARK   71  A    between atoms: _186  and  _187
REMARK   72  A    between atoms: _189  and  _191
REMARK   73  A    between atoms: _191  and  _192
REMARK   74  A    between atoms: _194  and  _196
REMARK   75  A    between atoms: _196  and  _197
REMARK   76  A    between atoms: _196  and  _199
REMARK   77  A    between atoms: _199  and  _200
REMARK   78  A    between atoms: _203  and  _205
REMARK   79  A    between atoms: _205  and  _206
REMARK   80  A    between atoms: _205  and  _208
REMARK   81  A    between atoms: _208  and  _209
REMARK   82  A    between atoms: _209  and  _210
REMARK   83  A    between atoms: _210  and  _211
REMARK   84  A    between atoms: _220  and  _222
REMARK   85  A    between atoms: _222  and  _223
REMARK   86  A    between atoms: _225  and  _227
REMARK   87  A    between atoms: _227  and  _228
REMARK   88  A    between atoms: _227  and  _230
REMARK   89  A    between atoms: _230  and  _231
REMARK   90  A    between atoms: _236  and  _237
REMARK                            x       y       z     vdW  Elec       q    Type
REMARK                         _______ _______ _______ _____ _____    ______ ____
ROOT
ATOM      1  O   HOH     1     -32.258 -11.479  22.502  0.00  0.00    +0.000 OA
ENDROOT
TORSDOF 0
