REMARK  Name = ../refined-set-2016/1atr/1atr_pocket.pdb
REMARK  216 active torsions:
REMARK  status: ('A' for Active; 'I' for Inactive)
REMARK    1  A    between atoms: _1  and  _3
REMARK    2  A    between atoms: _3  and  _4
REMARK    3  A    between atoms: _3  and  _6
REMARK    4  A    between atoms: _6  and  _7
REMARK    5  A    between atoms: _10  and  _12
REMARK    6  A    between atoms: _12  and  _13
REMARK    7  A    between atoms: _12  and  _15
REMARK    8  A    between atoms: _15  and  _16
REMARK    9  A    between atoms: _19  and  _21
REMARK   10  A    between atoms: _21  and  _22
REMARK   11  A    between atoms: _24  and  _26
REMARK   12  A    between atoms: _26  and  _27
REMARK   13  A    between atoms: _26  and  _29
REMARK   14  A    between atoms: _29  and  _30
REMARK   15  A    between atoms: _33  and  _35
REMARK   16  A    between atoms: _35  and  _36
REMARK   17  A    between atoms: _35  and  _38
REMARK   18  A    between atoms: _38  and  _39
REMARK   19  A    between atoms: _42  and  _44
REMARK   20  A    between atoms: _44  and  _45
REMARK   21  A    between atoms: _44  and  _47
REMARK   22  A    between atoms: _47  and  _48
REMARK   23  A    between atoms: _53  and  _54
REMARK   24  A    between atoms: _56  and  _58
REMARK   25  A    between atoms: _58  and  _59
REMARK   26  A    between atoms: _58  and  _61
REMARK   27  A    between atoms: _61  and  _62
REMARK   28  A    between atoms: _64  and  _66
REMARK   29  A    between atoms: _66  and  _67
REMARK   30  A    between atoms: _66  and  _69
REMARK   31  A    between atoms: _71  and  _73
REMARK   32  A    between atoms: _73  and  _74
REMARK   33  A    between atoms: _73  and  _76
REMARK   34  A    between atoms: _76  and  _77
REMARK   35  A    between atoms: _80  and  _82
REMARK   36  A    between atoms: _82  and  _83
REMARK   37  A    between atoms: _82  and  _85
REMARK   38  A    between atoms: _85  and  _86
REMARK   39  A    between atoms: _90  and  _91
REMARK   40  A    between atoms: _96  and  _98
REMARK   41  A    between atoms: _98  and  _99
REMARK   42  A    between atoms: _98  and  _101
REMARK   43  A    between atoms: _101  and  _102
REMARK   44  A    between atoms: _104  and  _106
REMARK   45  A    between atoms: _106  and  _107
REMARK   46  A    between atoms: _106  and  _109
REMARK   47  A    between atoms: _109  and  _110
REMARK   48  A    between atoms: _110  and  _111
REMARK   49  A    between atoms: _111  and  _112
REMARK   50  A    between atoms: _112  and  _113
REMARK   51  A    between atoms: _117  and  _119
REMARK   52  A    between atoms: _119  and  _120
REMARK   53  A    between atoms: _119  and  _122
REMARK   54  A    between atoms: _122  and  _123
REMARK   55  A    between atoms: _126  and  _128
REMARK   56  A    between atoms: _128  and  _129
REMARK   57  A    between atoms: _128  and  _131
REMARK   58  A    between atoms: _131  and  _132
REMARK   59  A    between atoms: _132  and  _133
REMARK   60  A    between atoms: _133  and  _134
REMARK   61  A    between atoms: _134  and  _135
REMARK   62  A    between atoms: _139  and  _141
REMARK   63  A    between atoms: _141  and  _142
REMARK   64  A    between atoms: _141  and  _144
REMARK   65  A    between atoms: _144  and  _145
REMARK   66  A    between atoms: _145  and  _146
REMARK   67  A    between atoms: _146  and  _147
REMARK   68  A    between atoms: _156  and  _158
REMARK   69  A    between atoms: _158  and  _159
REMARK   70  A    between atoms: _158  and  _161
REMARK   71  A    between atoms: _161  and  _162
REMARK   72  A    between atoms: _162  and  _163
REMARK   73  A    between atoms: _166  and  _168
REMARK   74  A    between atoms: _168  and  _169
REMARK   75  A    between atoms: _168  and  _171
REMARK   76  A    between atoms: _171  and  _172
REMARK   77  A    between atoms: _175  and  _177
REMARK   78  A    between atoms: _177  and  _178
REMARK   79  A    between atoms: _177  and  _180
REMARK   80  A    between atoms: _180  and  _181
REMARK   81  A    between atoms: _184  and  _186
REMARK   82  A    between atoms: _186  and  _187
REMARK   83  A    between atoms: _189  and  _191
REMARK   84  A    between atoms: _191  and  _192
REMARK   85  A    between atoms: _194  and  _196
REMARK   86  A    between atoms: _196  and  _197
REMARK   87  A    between atoms: _199  and  _201
REMARK   88  A    between atoms: _201  and  _202
REMARK   89  A    between atoms: _201  and  _204
REMARK   90  A    between atoms: _207  and  _209
REMARK   91  A    between atoms: _209  and  _210
REMARK   92  A    between atoms: _209  and  _212
REMARK   93  A    between atoms: _212  and  _213
REMARK   94  A    between atoms: _219  and  _221
REMARK   95  A    between atoms: _221  and  _222
REMARK   96  A    between atoms: _221  and  _224
REMARK   97  A    between atoms: _224  and  _225
REMARK   98  A    between atoms: _228  and  _230
REMARK   99  A    between atoms: _230  and  _231
REMARK  100  A    between atoms: _233  and  _235
REMARK  101  A    between atoms: _235  and  _236
REMARK  102  A    between atoms: _238  and  _240
REMARK  103  A    between atoms: _240  and  _241
REMARK  104  A    between atoms: _240  and  _243
REMARK  105  A    between atoms: _243  and  _244
REMARK  106  A    between atoms: _244  and  _245
REMARK  107  A    between atoms: _248  and  _250
REMARK  108  A    between atoms: _250  and  _251
REMARK  109  A    between atoms: _250  and  _253
REMARK  110  A    between atoms: _253  and  _254
REMARK  111  A    between atoms: _257  and  _259
REMARK  112  A    between atoms: _259  and  _260
REMARK  113  A    between atoms: _259  and  _262
REMARK  114  A    between atoms: _262  and  _263
REMARK  115  A    between atoms: _269  and  _271
REMARK  116  A    between atoms: _271  and  _272
REMARK  117  A    between atoms: _271  and  _274
REMARK  118  A    between atoms: _274  and  _275
REMARK  119  A    between atoms: _278  and  _280
REMARK  120  A    between atoms: _280  and  _281
REMARK  121  A    between atoms: _280  and  _283
REMARK  122  A    between atoms: _285  and  _287
REMARK  123  A    between atoms: _287  and  _288
REMARK  124  A    between atoms: _287  and  _290
REMARK  125  A    between atoms: _290  and  _291
REMARK  126  A    between atoms: _291  and  _292
REMARK  127  A    between atoms: _295  and  _297
REMARK  128  A    between atoms: _297  and  _298
REMARK  129  A    between atoms: _297  and  _300
REMARK  130  A    between atoms: _300  and  _301
REMARK  131  A    between atoms: _301  and  _302
REMARK  132  A    between atoms: _302  and  _303
REMARK  133  A    between atoms: _312  and  _314
REMARK  134  A    between atoms: _314  and  _315
REMARK  135  A    between atoms: _318  and  _320
REMARK  136  A    between atoms: _320  and  _321
REMARK  137  A    between atoms: _320  and  _323
REMARK  138  A    between atoms: _323  and  _324
REMARK  139  A    between atoms: _324  and  _325
REMARK  140  A    between atoms: _325  and  _326
REMARK  141  A    between atoms: _326  and  _327
REMARK  142  A    between atoms: _331  and  _333
REMARK  143  A    between atoms: _333  and  _334
REMARK  144  A    between atoms: _333  and  _336
REMARK  145  A    between atoms: _336  and  _337
REMARK  146  A    between atoms: _337  and  _338
REMARK  147  A    between atoms: _338  and  _339
REMARK  148  A    between atoms: _348  and  _350
REMARK  149  A    between atoms: _350  and  _351
REMARK  150  A    between atoms: _350  and  _353
REMARK  151  A    between atoms: _353  and  _354
REMARK  152  A    between atoms: _357  and  _359
REMARK  153  A    between atoms: _359  and  _360
REMARK  154  A    between atoms: _359  and  _362
REMARK  155  A    between atoms: _362  and  _363
REMARK  156  A    between atoms: _366  and  _368
REMARK  157  A    between atoms: _368  and  _369
REMARK  158  A    between atoms: _368  and  _371
REMARK  159  A    between atoms: _371  and  _372
REMARK  160  A    between atoms: _374  and  _376
REMARK  161  A    between atoms: _376  and  _377
REMARK  162  A    between atoms: _376  and  _379
REMARK  163  A    between atoms: _379  and  _380
REMARK  164  A    between atoms: _382  and  _384
REMARK  165  A    between atoms: _384  and  _385
REMARK  166  A    between atoms: _384  and  _387
REMARK  167  A    between atoms: _387  and  _388
REMARK  168  A    between atoms: _394  and  _396
REMARK  169  A    between atoms: _396  and  _397
REMARK  170  A    between atoms: _396  and  _399
REMARK  171  A    between atoms: _402  and  _404
REMARK  172  A    between atoms: _404  and  _405
REMARK  173  A    between atoms: _407  and  _409
REMARK  174  A    between atoms: _409  and  _410
REMARK  175  A    between atoms: _412  and  _414
REMARK  176  A    between atoms: _414  and  _415
REMARK  177  A    between atoms: _414  and  _417
REMARK  178  A    between atoms: _417  and  _418
REMARK  179  A    between atoms: _420  and  _422
REMARK  180  A    between atoms: _422  and  _423
REMARK  181  A    between atoms: _422  and  _425
REMARK  182  A    between atoms: _425  and  _426
REMARK  183  A    between atoms: _429  and  _431
REMARK  184  A    between atoms: _431  and  _432
REMARK  185  A    between atoms: _431  and  _434
REMARK  186  A    between atoms: _434  and  _435
REMARK  187  A    between atoms: _435  and  _436
REMARK  188  A    between atoms: _436  and  _437
REMARK  189  A    between atoms: _446  and  _448
REMARK  190  A    between atoms: _448  and  _449
REMARK  191  A    between atoms: _448  and  _451
REMARK  192  A    between atoms: _451  and  _452
REMARK  193  A    between atoms: _456  and  _457
REMARK  194  A    between atoms: _462  and  _464
REMARK  195  A    between atoms: _464  and  _465
REMARK  196  A    between atoms: _464  and  _467
REMARK  197  A    between atoms: _467  and  _468
REMARK  198  A    between atoms: _471  and  _473
REMARK  199  A    between atoms: _473  and  _474
REMARK  200  A    between atoms: _473  and  _476
REMARK  201  A    between atoms: _476  and  _477
REMARK  202  A    between atoms: _483  and  _484
REMARK  203  A    between atoms: _489  and  _491
REMARK  204  A    between atoms: _491  and  _492
REMARK  205  A    between atoms: _491  and  _494
REMARK  206  A    between atoms: _494  and  _495
REMARK  207  A    between atoms: _498  and  _500
REMARK  208  A    between atoms: _500  and  _501
REMARK  209  A    between atoms: _500  and  _503
REMARK  210  A    between atoms: _503  and  _504
REMARK  211  A    between atoms: _504  and  _505
REMARK  212  A    between atoms: _508  and  _510
REMARK  213  A    between atoms: _510  and  _511
REMARK  214  A    between atoms: _514  and  _516
REMARK  215  A    between atoms: _516  and  _517
REMARK  216  A    between atoms: _516  and  _519
REMARK                            x       y       z     vdW  Elec       q    Type
REMARK                         _______ _______ _______ _____ _____    ______ ____
ROOT
ATOM      1  CA  THR A   5      13.428  30.682  16.614  0.00  0.00    +0.176 C 
ENDROOT
BRANCH   1   4
ATOM      2  C   THR A   4      13.122  28.354  17.311  0.00  0.00    +0.243 C 
ATOM      3  O   THR A   4      11.917  28.506  17.535  0.00  0.00    -0.273 OA
ATOM      4  N   THR A   5      13.914  29.328  16.860  0.00  0.00    -0.295 N 
ATOM      5  H   THR A   5      14.915  29.115  16.677  0.00  0.00    +0.150 HD
BRANCH   2   6
ATOM      6  CA  THR A   4      13.780  26.993  17.541  0.00  0.00    +0.176 C 
BRANCH   6   8
ATOM      7  C   GLY A   3      14.301  26.543  15.194  0.00  0.00    +0.243 C 
ATOM      8  N   THR A   4      14.700  26.675  16.457  0.00  0.00    -0.295 N 
ATOM      9  H   THR A   4      15.708  26.546  16.679  0.00  0.00    +0.150 HD
ATOM     10  O   GLY A   3      13.133  26.708  14.831  0.00  0.00    -0.273 OA
BRANCH   7  11
ATOM     11  CA  GLY A   3      15.397  26.228  14.197  0.00  0.00    +0.176 C 
BRANCH  11  14
ATOM     12  C   LEU A   2      14.792  24.395  12.754  0.00  0.00    +0.241 C 
ATOM     13  O   LEU A   2      14.757  23.621  13.704  0.00  0.00    -0.273 OA
ATOM     14  N   GLY A   3      15.056  25.688  12.893  0.00  0.00    -0.295 N 
ATOM     15  H   GLY A   3      15.019  26.317  12.065  0.00  0.00    +0.150 HD
BRANCH  12  16
ATOM     16  CA  LEU A   2      14.505  23.896  11.341  0.00  0.00    +0.149 C 
BRANCH  16  18
ATOM     17  C   ASP A   1      16.521  24.523  10.105  0.00  0.00    +0.239 C 
ATOM     18  N   LEU A   2      15.813  23.605  10.756  0.00  0.00    -0.297 N 
ATOM     19  H   LEU A   2      16.203  22.646  10.853  0.00  0.00    +0.150 HD
ATOM     20  O   ASP A   1      16.085  25.654   9.856  0.00  0.00    -0.274 OA
BRANCH  17  21
ATOM     21  CA  ASP A   1      17.880  24.065   9.558  0.00  0.00    +0.156 C 
BRANCH  21  22
ATOM     22  N   ASP A   1      17.645  23.921   8.139  0.00  0.00    -0.238 NA
ATOM     23  H   ASP A   1      17.679  24.772   7.542  0.00  0.00    +0.142 HD
ENDBRANCH  21  22
BRANCH  21  24
ATOM     24  CB  ASP A   1      18.964  25.132   9.796  0.00  0.00    +0.140 C 
BRANCH  24  25
ATOM     25  CG  ASP A   1      19.091  25.545  11.252  0.00  0.00    +0.367 C 
ATOM     26  OD2 ASP A   1      18.771  24.765  12.173  0.00  0.00    -0.246 OA
ATOM     27  OD1 ASP A   1      19.539  26.680  11.484  0.00  0.00    -0.246 OA
ENDBRANCH  24  25
ENDBRANCH  21  24
ENDBRANCH  17  21
ENDBRANCH  16  18
BRANCH  16  28
ATOM     28  CB  LEU A   2      13.667  22.611  11.408  0.00  0.00    +0.029 C 
BRANCH  28  29
ATOM     29  CG  LEU A   2      12.152  22.711  11.170  0.00  0.00    +0.002 C 
ATOM     30  CD2 LEU A   2      11.577  23.965  11.794  0.00  0.00    +0.000 C 
ATOM     31  CD1 LEU A   2      11.470  21.466  11.732  0.00  0.00    +0.000 C 
ENDBRANCH  28  29
ENDBRANCH  16  28
ENDBRANCH  12  16
ENDBRANCH  11  14
ENDBRANCH   7  11
ENDBRANCH   6   8
BRANCH   6  32
ATOM     32  CB  THR A   4      14.510  27.037  18.903  0.00  0.00    +0.137 C 
ATOM     33  CG2 THR A   4      13.525  27.315  20.033  0.00  0.00    +0.034 C 
BRANCH  32  34
ATOM     34  OG1 THR A   4      15.158  25.782  19.142  0.00  0.00    -0.382 OA
ATOM     35  HG1 THR A   4      15.624  25.814  20.015  0.00  0.00    +0.210 HD
ENDBRANCH  32  34
ENDBRANCH   6  32
ENDBRANCH   2   6
ENDBRANCH   1   4
BRANCH   1  36
ATOM     36  C   THR A   5      13.595  31.138  15.152  0.00  0.00    +0.243 C 
ATOM     37  O   THR A   5      12.855  32.004  14.675  0.00  0.00    -0.273 OA
ATOM     38  N   TYR A   6      14.566  30.559  14.447  0.00  0.00    -0.297 N 
ATOM     39  H   TYR A   6      15.159  29.841  14.910  0.00  0.00    +0.150 HD
BRANCH  38  40
ATOM     40  CA  TYR A   6      14.833  30.893  13.043  0.00  0.00    +0.153 C 
BRANCH  40  41
ATOM     41  C   TYR A   6      15.173  29.635  12.271  0.00  0.00    +0.241 C 
ATOM     42  O   TYR A   6      15.729  28.690  12.834  0.00  0.00    -0.273 OA
ATOM     43  N   SER A   7      14.804  29.607  10.994  0.00  0.00    -0.295 N 
ATOM     44  H   SER A   7      14.290  30.419  10.597  0.00  0.00    +0.150 HD
BRANCH  43  45
ATOM     45  CA  SER A   7      15.101  28.472  10.140  0.00  0.00    +0.178 C 
BRANCH  45  46
ATOM     46  C   SER A   7      15.917  28.979   8.948  0.00  0.00    +0.243 C 
ATOM     47  O   SER A   7      15.901  30.179   8.643  0.00  0.00    -0.273 OA
ATOM     48  N   CYS A   8      16.643  28.081   8.290  0.00  0.00    -0.297 N 
ATOM     49  H   CYS A   8      16.605  27.082   8.577  0.00  0.00    +0.150 HD
BRANCH  48  50
ATOM     50  CA  CYS A   8      17.494  28.477   7.169  0.00  0.00    +0.149 C 
BRANCH  50  51
ATOM     51  CB  CYS A   8      18.915  28.793   7.701  0.00  0.00    +0.096 C 
ATOM     52  SG  CYS A   8      20.133  29.366   6.475  0.00  0.00    -0.080 S 
ENDBRANCH  50  51
BRANCH  50  53
ATOM     53  C   CYS A   8      17.544  27.368   6.132  0.00  0.00    +0.228 C 
ATOM     54  O   CYS A   8      17.548  26.191   6.480  0.00  0.00    -0.286 OA
ENDBRANCH  50  53
ENDBRANCH  48  50
ENDBRANCH  45  46
BRANCH  45  55
ATOM     55  CB  SER A   7      13.811  27.775   9.699  0.00  0.00    +0.166 C 
BRANCH  55  56
ATOM     56  OG  SER A   7      13.151  27.196  10.815  0.00  0.00    -0.380 OA
ATOM     57  H   SER A   7      12.927  27.905  11.468  0.00  0.00    +0.211 HD
ENDBRANCH  55  56
ENDBRANCH  45  55
ENDBRANCH  43  45
ENDBRANCH  40  41
BRANCH  40  58
ATOM     58  CB  TYR A   6      16.010  31.869  12.911  0.00  0.00    +0.055 C 
BRANCH  58  59
ATOM     59  CG  TYR A   6      15.715  33.276  13.362  0.00  0.00    -0.020 A 
ATOM     60  CD2 TYR A   6      15.945  33.666  14.676  0.00  0.00    -0.001 A 
ATOM     61  CE2 TYR A   6      15.697  34.950  15.094  0.00  0.00    +0.036 A 
ATOM     62  CZ  TYR A   6      15.210  35.871  14.199  0.00  0.00    +0.134 A 
ATOM     63  CE1 TYR A   6      14.963  35.515  12.880  0.00  0.00    +0.036 A 
ATOM     64  CD1 TYR A   6      15.219  34.222  12.473  0.00  0.00    -0.001 A 
BRANCH  62  65
ATOM     65  OH  TYR A   6      15.007  37.172  14.615  0.00  0.00    -0.506 OA
ATOM     66  HH  TYR A   6      14.656  37.708  13.860  0.00  0.00    +0.292 HD
ENDBRANCH  62  65
ENDBRANCH  58  59
ENDBRANCH  40  58
ENDBRANCH  38  40
ENDBRANCH   1  36
BRANCH   1  67
ATOM     67  CB  THR A   5      14.123  31.685  17.558  0.00  0.00    +0.137 C 
ATOM     68  CG2 THR A   5      13.874  31.314  19.020  0.00  0.00    +0.034 C 
BRANCH  67  69
ATOM     69  OG1 THR A   5      15.543  31.650  17.334  0.00  0.00    -0.382 OA
ATOM     70  HG1 THR A   5      15.882  30.737  17.514  0.00  0.00    +0.210 HD
ENDBRANCH  67  69
ENDBRANCH   1  67
TORSDOF 30
REMARK  Name = ../refined-set-2016/1atr/1atr_pocket.pdb
REMARK  216 active torsions:
REMARK  status: ('A' for Active; 'I' for Inactive)
REMARK    1  A    between atoms: _1  and  _3
REMARK    2  A    between atoms: _3  and  _4
REMARK    3  A    between atoms: _3  and  _6
REMARK    4  A    between atoms: _6  and  _7
REMARK    5  A    between atoms: _10  and  _12
REMARK    6  A    between atoms: _12  and  _13
REMARK    7  A    between atoms: _12  and  _15
REMARK    8  A    between atoms: _15  and  _16
REMARK    9  A    between atoms: _19  and  _21
REMARK   10  A    between atoms: _21  and  _22
REMARK   11  A    between atoms: _24  and  _26
REMARK   12  A    between atoms: _26  and  _27
REMARK   13  A    between atoms: _26  and  _29
REMARK   14  A    between atoms: _29  and  _30
REMARK   15  A    between atoms: _33  and  _35
REMARK   16  A    between atoms: _35  and  _36
REMARK   17  A    between atoms: _35  and  _38
REMARK   18  A    between atoms: _38  and  _39
REMARK   19  A    between atoms: _42  and  _44
REMARK   20  A    between atoms: _44  and  _45
REMARK   21  A    between atoms: _44  and  _47
REMARK   22  A    between atoms: _47  and  _48
REMARK   23  A    between atoms: _53  and  _54
REMARK   24  A    between atoms: _56  and  _58
REMARK   25  A    between atoms: _58  and  _59
REMARK   26  A    between atoms: _58  and  _61
REMARK   27  A    between atoms: _61  and  _62
REMARK   28  A    between atoms: _64  and  _66
REMARK   29  A    between atoms: _66  and  _67
REMARK   30  A    between atoms: _66  and  _69
REMARK   31  A    between atoms: _71  and  _73
REMARK   32  A    between atoms: _73  and  _74
REMARK   33  A    between atoms: _73  and  _76
REMARK   34  A    between atoms: _76  and  _77
REMARK   35  A    between atoms: _80  and  _82
REMARK   36  A    between atoms: _82  and  _83
REMARK   37  A    between atoms: _82  and  _85
REMARK   38  A    between atoms: _85  and  _86
REMARK   39  A    between atoms: _90  and  _91
REMARK   40  A    between atoms: _96  and  _98
REMARK   41  A    between atoms: _98  and  _99
REMARK   42  A    between atoms: _98  and  _101
REMARK   43  A    between atoms: _101  and  _102
REMARK   44  A    between atoms: _104  and  _106
REMARK   45  A    between atoms: _106  and  _107
REMARK   46  A    between atoms: _106  and  _109
REMARK   47  A    between atoms: _109  and  _110
REMARK   48  A    between atoms: _110  and  _111
REMARK   49  A    between atoms: _111  and  _112
REMARK   50  A    between atoms: _112  and  _113
REMARK   51  A    between atoms: _117  and  _119
REMARK   52  A    between atoms: _119  and  _120
REMARK   53  A    between atoms: _119  and  _122
REMARK   54  A    between atoms: _122  and  _123
REMARK   55  A    between atoms: _126  and  _128
REMARK   56  A    between atoms: _128  and  _129
REMARK   57  A    between atoms: _128  and  _131
REMARK   58  A    between atoms: _131  and  _132
REMARK   59  A    between atoms: _132  and  _133
REMARK   60  A    between atoms: _133  and  _134
REMARK   61  A    between atoms: _134  and  _135
REMARK   62  A    between atoms: _139  and  _141
REMARK   63  A    between atoms: _141  and  _142
REMARK   64  A    between atoms: _141  and  _144
REMARK   65  A    between atoms: _144  and  _145
REMARK   66  A    between atoms: _145  and  _146
REMARK   67  A    between atoms: _146  and  _147
REMARK   68  A    between atoms: _156  and  _158
REMARK   69  A    between atoms: _158  and  _159
REMARK   70  A    between atoms: _158  and  _161
REMARK   71  A    between atoms: _161  and  _162
REMARK   72  A    between atoms: _162  and  _163
REMARK   73  A    between atoms: _166  and  _168
REMARK   74  A    between atoms: _168  and  _169
REMARK   75  A    between atoms: _168  and  _171
REMARK   76  A    between atoms: _171  and  _172
REMARK   77  A    between atoms: _175  and  _177
REMARK   78  A    between atoms: _177  and  _178
REMARK   79  A    between atoms: _177  and  _180
REMARK   80  A    between atoms: _180  and  _181
REMARK   81  A    between atoms: _184  and  _186
REMARK   82  A    between atoms: _186  and  _187
REMARK   83  A    between atoms: _189  and  _191
REMARK   84  A    between atoms: _191  and  _192
REMARK   85  A    between atoms: _194  and  _196
REMARK   86  A    between atoms: _196  and  _197
REMARK   87  A    between atoms: _199  and  _201
REMARK   88  A    between atoms: _201  and  _202
REMARK   89  A    between atoms: _201  and  _204
REMARK   90  A    between atoms: _207  and  _209
REMARK   91  A    between atoms: _209  and  _210
REMARK   92  A    between atoms: _209  and  _212
REMARK   93  A    between atoms: _212  and  _213
REMARK   94  A    between atoms: _219  and  _221
REMARK   95  A    between atoms: _221  and  _222
REMARK   96  A    between atoms: _221  and  _224
REMARK   97  A    between atoms: _224  and  _225
REMARK   98  A    between atoms: _228  and  _230
REMARK   99  A    between atoms: _230  and  _231
REMARK  100  A    between atoms: _233  and  _235
REMARK  101  A    between atoms: _235  and  _236
REMARK  102  A    between atoms: _238  and  _240
REMARK  103  A    between atoms: _240  and  _241
REMARK  104  A    between atoms: _240  and  _243
REMARK  105  A    between atoms: _243  and  _244
REMARK  106  A    between atoms: _244  and  _245
REMARK  107  A    between atoms: _248  and  _250
REMARK  108  A    between atoms: _250  and  _251
REMARK  109  A    between atoms: _250  and  _253
REMARK  110  A    between atoms: _253  and  _254
REMARK  111  A    between atoms: _257  and  _259
REMARK  112  A    between atoms: _259  and  _260
REMARK  113  A    between atoms: _259  and  _262
REMARK  114  A    between atoms: _262  and  _263
REMARK  115  A    between atoms: _269  and  _271
REMARK  116  A    between atoms: _271  and  _272
REMARK  117  A    between atoms: _271  and  _274
REMARK  118  A    between atoms: _274  and  _275
REMARK  119  A    between atoms: _278  and  _280
REMARK  120  A    between atoms: _280  and  _281
REMARK  121  A    between atoms: _280  and  _283
REMARK  122  A    between atoms: _285  and  _287
REMARK  123  A    between atoms: _287  and  _288
REMARK  124  A    between atoms: _287  and  _290
REMARK  125  A    between atoms: _290  and  _291
REMARK  126  A    between atoms: _291  and  _292
REMARK  127  A    between atoms: _295  and  _297
REMARK  128  A    between atoms: _297  and  _298
REMARK  129  A    between atoms: _297  and  _300
REMARK  130  A    between atoms: _300  and  _301
REMARK  131  A    between atoms: _301  and  _302
REMARK  132  A    between atoms: _302  and  _303
REMARK  133  A    between atoms: _312  and  _314
REMARK  134  A    between atoms: _314  and  _315
REMARK  135  A    between atoms: _318  and  _320
REMARK  136  A    between atoms: _320  and  _321
REMARK  137  A    between atoms: _320  and  _323
REMARK  138  A    between atoms: _323  and  _324
REMARK  139  A    between atoms: _324  and  _325
REMARK  140  A    between atoms: _325  and  _326
REMARK  141  A    between atoms: _326  and  _327
REMARK  142  A    between atoms: _331  and  _333
REMARK  143  A    between atoms: _333  and  _334
REMARK  144  A    between atoms: _333  and  _336
REMARK  145  A    between atoms: _336  and  _337
REMARK  146  A    between atoms: _337  and  _338
REMARK  147  A    between atoms: _338  and  _339
REMARK  148  A    between atoms: _348  and  _350
REMARK  149  A    between atoms: _350  and  _351
REMARK  150  A    between atoms: _350  and  _353
REMARK  151  A    between atoms: _353  and  _354
REMARK  152  A    between atoms: _357  and  _359
REMARK  153  A    between atoms: _359  and  _360
REMARK  154  A    between atoms: _359  and  _362
REMARK  155  A    between atoms: _362  and  _363
REMARK  156  A    between atoms: _366  and  _368
REMARK  157  A    between atoms: _368  and  _369
REMARK  158  A    between atoms: _368  and  _371
REMARK  159  A    between atoms: _371  and  _372
REMARK  160  A    between atoms: _374  and  _376
REMARK  161  A    between atoms: _376  and  _377
REMARK  162  A    between atoms: _376  and  _379
REMARK  163  A    between atoms: _379  and  _380
REMARK  164  A    between atoms: _382  and  _384
REMARK  165  A    between atoms: _384  and  _385
REMARK  166  A    between atoms: _384  and  _387
REMARK  167  A    between atoms: _387  and  _388
REMARK  168  A    between atoms: _394  and  _396
REMARK  169  A    between atoms: _396  and  _397
REMARK  170  A    between atoms: _396  and  _399
REMARK  171  A    between atoms: _402  and  _404
REMARK  172  A    between atoms: _404  and  _405
REMARK  173  A    between atoms: _407  and  _409
REMARK  174  A    between atoms: _409  and  _410
REMARK  175  A    between atoms: _412  and  _414
REMARK  176  A    between atoms: _414  and  _415
REMARK  177  A    between atoms: _414  and  _417
REMARK  178  A    between atoms: _417  and  _418
REMARK  179  A    between atoms: _420  and  _422
REMARK  180  A    between atoms: _422  and  _423
REMARK  181  A    between atoms: _422  and  _425
REMARK  182  A    between atoms: _425  and  _426
REMARK  183  A    between atoms: _429  and  _431
REMARK  184  A    between atoms: _431  and  _432
REMARK  185  A    between atoms: _431  and  _434
REMARK  186  A    between atoms: _434  and  _435
REMARK  187  A    between atoms: _435  and  _436
REMARK  188  A    between atoms: _436  and  _437
REMARK  189  A    between atoms: _446  and  _448
REMARK  190  A    between atoms: _448  and  _449
REMARK  191  A    between atoms: _448  and  _451
REMARK  192  A    between atoms: _451  and  _452
REMARK  193  A    between atoms: _456  and  _457
REMARK  194  A    between atoms: _462  and  _464
REMARK  195  A    between atoms: _464  and  _465
REMARK  196  A    between atoms: _464  and  _467
REMARK  197  A    between atoms: _467  and  _468
REMARK  198  A    between atoms: _471  and  _473
REMARK  199  A    between atoms: _473  and  _474
REMARK  200  A    between atoms: _473  and  _476
REMARK  201  A    between atoms: _476  and  _477
REMARK  202  A    between atoms: _483  and  _484
REMARK  203  A    between atoms: _489  and  _491
REMARK  204  A    between atoms: _491  and  _492
REMARK  205  A    between atoms: _491  and  _494
REMARK  206  A    between atoms: _494  and  _495
REMARK  207  A    between atoms: _498  and  _500
REMARK  208  A    between atoms: _500  and  _501
REMARK  209  A    between atoms: _500  and  _503
REMARK  210  A    between atoms: _503  and  _504
REMARK  211  A    between atoms: _504  and  _505
REMARK  212  A    between atoms: _508  and  _510
REMARK  213  A    between atoms: _510  and  _511
REMARK  214  A    between atoms: _514  and  _516
REMARK  215  A    between atoms: _516  and  _517
REMARK  216  A    between atoms: _516  and  _519
REMARK                            x       y       z     vdW  Elec       q    Type
REMARK                         _______ _______ _______ _____ _____    ______ ____
ROOT
ATOM      1  C   THR A   2      12.753  32.880   9.847  0.00  0.00    +0.246 C 
ATOM      2  N   PRO A   3      12.039  33.716  10.616  0.00  0.00    -0.272 N 
ATOM      3  CA  PRO A   3      11.508  33.342  11.928  0.00  0.00    +0.152 C 
ATOM      4  CB  PRO A   3      10.640  34.550  12.293  0.00  0.00    +0.031 C 
ATOM      5  CG  PRO A   3      11.332  35.691  11.617  0.00  0.00    +0.024 C 
ATOM      6  CD  PRO A   3      11.686  35.108  10.277  0.00  0.00    +0.094 C 
ATOM      7  O   THR A   2      13.048  31.733  10.212  0.00  0.00    -0.273 OA
ENDROOT
BRANCH   3   8
ATOM      8  C   PRO A   3      10.666  32.069  11.875  0.00  0.00    +0.241 C 
ATOM      9  N   SER A   4      10.756  31.266  12.931  0.00  0.00    -0.296 N 
ATOM     10  H   SER A   4      11.406  31.518  13.703  0.00  0.00    +0.150 HD
ATOM     11  O   PRO A   3       9.994  31.797  10.873  0.00  0.00    -0.273 OA
BRANCH   9  12
ATOM     12  CA  SER A   4       9.967  30.036  13.040  0.00  0.00    +0.166 C 
BRANCH  12  13
ATOM     13  CB  SER A   4       8.638  30.422  13.717  0.00  0.00    +0.229 C 
ATOM     14  OG  SER A   4       8.292  29.922  14.792  0.00  0.00    -0.286 OA
ENDBRANCH  12  13
BRANCH  12  15
ATOM     15  C   SER A   4      10.716  28.992  13.871  0.00  0.00    +0.165 C 
BRANCH  15  16
ATOM     16  O   SER A   4      11.809  28.473  13.147  0.00  0.00    -0.380 OA
ATOM     17  H   SER A   4      12.280  27.801  13.700  0.00  0.00    +0.211 HD
ENDBRANCH  15  16
ENDBRANCH  12  15
ENDBRANCH   9  12
ENDBRANCH   3   8
BRANCH   1  18
ATOM     18  CA  THR A   2      13.242  33.416   8.511  0.00  0.00    +0.176 C 
BRANCH  18  20
ATOM     19  C   THR A   1      15.582  33.783   8.064  0.00  0.00    +0.241 C 
ATOM     20  N   THR A   2      14.590  32.926   8.272  0.00  0.00    -0.295 N 
ATOM     21  H   THR A   2      14.777  31.903   8.264  0.00  0.00    +0.150 HD
ATOM     22  O   THR A   1      15.393  35.001   7.975  0.00  0.00    -0.274 OA
BRANCH  19  23
ATOM     23  CA  THR A   1      16.975  33.193   7.833  0.00  0.00    +0.172 C 
BRANCH  23  24
ATOM     24  N   THR A   1      17.606  34.082   6.864  0.00  0.00    -0.236 NA
ATOM     25  H   THR A   1      17.452  35.107   6.951  0.00  0.00    +0.142 HD
ENDBRANCH  23  24
BRANCH  23  26
ATOM     26  CB  THR A   1      17.740  33.121   9.177  0.00  0.00    +0.135 C 
ATOM     27  CG2 THR A   1      19.160  32.591   8.968  0.00  0.00    +0.034 C 
BRANCH  26  28
ATOM     28  OG1 THR A   1      17.791  34.420   9.784  0.00  0.00    -0.383 OA
ATOM     29  HG1 THR A   1      16.870  34.742   9.950  0.00  0.00    +0.210 HD
ENDBRANCH  26  28
ENDBRANCH  23  26
ENDBRANCH  19  23
ENDBRANCH  18  20
BRANCH  18  30
ATOM     30  CB  THR A   2      12.261  33.058   7.358  0.00  0.00    +0.137 C 
ATOM     31  CG2 THR A   2      13.011  32.761   6.075  0.00  0.00    +0.034 C 
BRANCH  30  32
ATOM     32  OG1 THR A   2      11.472  31.921   7.714  0.00  0.00    -0.382 OA
ATOM     33  HG1 THR A   2      10.951  32.125   8.531  0.00  0.00    +0.210 HD
ENDBRANCH  30  32
ENDBRANCH  18  30
ENDBRANCH   1  18
TORSDOF 13
REMARK  Name = ../refined-set-2016/1atr/1atr_pocket.pdb
REMARK  216 active torsions:
REMARK  status: ('A' for Active; 'I' for Inactive)
REMARK    1  A    between atoms: _1  and  _3
REMARK    2  A    between atoms: _3  and  _4
REMARK    3  A    between atoms: _3  and  _6
REMARK    4  A    between atoms: _6  and  _7
REMARK    5  A    between atoms: _10  and  _12
REMARK    6  A    between atoms: _12  and  _13
REMARK    7  A    between atoms: _12  and  _15
REMARK    8  A    between atoms: _15  and  _16
REMARK    9  A    between atoms: _19  and  _21
REMARK   10  A    between atoms: _21  and  _22
REMARK   11  A    between atoms: _24  and  _26
REMARK   12  A    between atoms: _26  and  _27
REMARK   13  A    between atoms: _26  and  _29
REMARK   14  A    between atoms: _29  and  _30
REMARK   15  A    between atoms: _33  and  _35
REMARK   16  A    between atoms: _35  and  _36
REMARK   17  A    between atoms: _35  and  _38
REMARK   18  A    between atoms: _38  and  _39
REMARK   19  A    between atoms: _42  and  _44
REMARK   20  A    between atoms: _44  and  _45
REMARK   21  A    between atoms: _44  and  _47
REMARK   22  A    between atoms: _47  and  _48
REMARK   23  A    between atoms: _53  and  _54
REMARK   24  A    between atoms: _56  and  _58
REMARK   25  A    between atoms: _58  and  _59
REMARK   26  A    between atoms: _58  and  _61
REMARK   27  A    between atoms: _61  and  _62
REMARK   28  A    between atoms: _64  and  _66
REMARK   29  A    between atoms: _66  and  _67
REMARK   30  A    between atoms: _66  and  _69
REMARK   31  A    between atoms: _71  and  _73
REMARK   32  A    between atoms: _73  and  _74
REMARK   33  A    between atoms: _73  and  _76
REMARK   34  A    between atoms: _76  and  _77
REMARK   35  A    between atoms: _80  and  _82
REMARK   36  A    between atoms: _82  and  _83
REMARK   37  A    between atoms: _82  and  _85
REMARK   38  A    between atoms: _85  and  _86
REMARK   39  A    between atoms: _90  and  _91
REMARK   40  A    between atoms: _96  and  _98
REMARK   41  A    between atoms: _98  and  _99
REMARK   42  A    between atoms: _98  and  _101
REMARK   43  A    between atoms: _101  and  _102
REMARK   44  A    between atoms: _104  and  _106
REMARK   45  A    between atoms: _106  and  _107
REMARK   46  A    between atoms: _106  and  _109
REMARK   47  A    between atoms: _109  and  _110
REMARK   48  A    between atoms: _110  and  _111
REMARK   49  A    between atoms: _111  and  _112
REMARK   50  A    between atoms: _112  and  _113
REMARK   51  A    between atoms: _117  and  _119
REMARK   52  A    between atoms: _119  and  _120
REMARK   53  A    between atoms: _119  and  _122
REMARK   54  A    between atoms: _122  and  _123
REMARK   55  A    between atoms: _126  and  _128
REMARK   56  A    between atoms: _128  and  _129
REMARK   57  A    between atoms: _128  and  _131
REMARK   58  A    between atoms: _131  and  _132
REMARK   59  A    between atoms: _132  and  _133
REMARK   60  A    between atoms: _133  and  _134
REMARK   61  A    between atoms: _134  and  _135
REMARK   62  A    between atoms: _139  and  _141
REMARK   63  A    between atoms: _141  and  _142
REMARK   64  A    between atoms: _141  and  _144
REMARK   65  A    between atoms: _144  and  _145
REMARK   66  A    between atoms: _145  and  _146
REMARK   67  A    between atoms: _146  and  _147
REMARK   68  A    between atoms: _156  and  _158
REMARK   69  A    between atoms: _158  and  _159
REMARK   70  A    between atoms: _158  and  _161
REMARK   71  A    between atoms: _161  and  _162
REMARK   72  A    between atoms: _162  and  _163
REMARK   73  A    between atoms: _166  and  _168
REMARK   74  A    between atoms: _168  and  _169
REMARK   75  A    between atoms: _168  and  _171
REMARK   76  A    between atoms: _171  and  _172
REMARK   77  A    between atoms: _175  and  _177
REMARK   78  A    between atoms: _177  and  _178
REMARK   79  A    between atoms: _177  and  _180
REMARK   80  A    between atoms: _180  and  _181
REMARK   81  A    between atoms: _184  and  _186
REMARK   82  A    between atoms: _186  and  _187
REMARK   83  A    between atoms: _189  and  _191
REMARK   84  A    between atoms: _191  and  _192
REMARK   85  A    between atoms: _194  and  _196
REMARK   86  A    between atoms: _196  and  _197
REMARK   87  A    between atoms: _199  and  _201
REMARK   88  A    between atoms: _201  and  _202
REMARK   89  A    between atoms: _201  and  _204
REMARK   90  A    between atoms: _207  and  _209
REMARK   91  A    between atoms: _209  and  _210
REMARK   92  A    between atoms: _209  and  _212
REMARK   93  A    between atoms: _212  and  _213
REMARK   94  A    between atoms: _219  and  _221
REMARK   95  A    between atoms: _221  and  _222
REMARK   96  A    between atoms: _221  and  _224
REMARK   97  A    between atoms: _224  and  _225
REMARK   98  A    between atoms: _228  and  _230
REMARK   99  A    between atoms: _230  and  _231
REMARK  100  A    between atoms: _233  and  _235
REMARK  101  A    between atoms: _235  and  _236
REMARK  102  A    between atoms: _238  and  _240
REMARK  103  A    between atoms: _240  and  _241
REMARK  104  A    between atoms: _240  and  _243
REMARK  105  A    between atoms: _243  and  _244
REMARK  106  A    between atoms: _244  and  _245
REMARK  107  A    between atoms: _248  and  _250
REMARK  108  A    between atoms: _250  and  _251
REMARK  109  A    between atoms: _250  and  _253
REMARK  110  A    between atoms: _253  and  _254
REMARK  111  A    between atoms: _257  and  _259
REMARK  112  A    between atoms: _259  and  _260
REMARK  113  A    between atoms: _259  and  _262
REMARK  114  A    between atoms: _262  and  _263
REMARK  115  A    between atoms: _269  and  _271
REMARK  116  A    between atoms: _271  and  _272
REMARK  117  A    between atoms: _271  and  _274
REMARK  118  A    between atoms: _274  and  _275
REMARK  119  A    between atoms: _278  and  _280
REMARK  120  A    between atoms: _280  and  _281
REMARK  121  A    between atoms: _280  and  _283
REMARK  122  A    between atoms: _285  and  _287
REMARK  123  A    between atoms: _287  and  _288
REMARK  124  A    between atoms: _287  and  _290
REMARK  125  A    between atoms: _290  and  _291
REMARK  126  A    between atoms: _291  and  _292
REMARK  127  A    between atoms: _295  and  _297
REMARK  128  A    between atoms: _297  and  _298
REMARK  129  A    between atoms: _297  and  _300
REMARK  130  A    between atoms: _300  and  _301
REMARK  131  A    between atoms: _301  and  _302
REMARK  132  A    between atoms: _302  and  _303
REMARK  133  A    between atoms: _312  and  _314
REMARK  134  A    between atoms: _314  and  _315
REMARK  135  A    between atoms: _318  and  _320
REMARK  136  A    between atoms: _320  and  _321
REMARK  137  A    between atoms: _320  and  _323
REMARK  138  A    between atoms: _323  and  _324
REMARK  139  A    between atoms: _324  and  _325
REMARK  140  A    between atoms: _325  and  _326
REMARK  141  A    between atoms: _326  and  _327
REMARK  142  A    between atoms: _331  and  _333
REMARK  143  A    between atoms: _333  and  _334
REMARK  144  A    between atoms: _333  and  _336
REMARK  145  A    between atoms: _336  and  _337
REMARK  146  A    between atoms: _337  and  _338
REMARK  147  A    between atoms: _338  and  _339
REMARK  148  A    between atoms: _348  and  _350
REMARK  149  A    between atoms: _350  and  _351
REMARK  150  A    between atoms: _350  and  _353
REMARK  151  A    between atoms: _353  and  _354
REMARK  152  A    between atoms: _357  and  _359
REMARK  153  A    between atoms: _359  and  _360
REMARK  154  A    between atoms: _359  and  _362
REMARK  155  A    between atoms: _362  and  _363
REMARK  156  A    between atoms: _366  and  _368
REMARK  157  A    between atoms: _368  and  _369
REMARK  158  A    between atoms: _368  and  _371
REMARK  159  A    between atoms: _371  and  _372
REMARK  160  A    between atoms: _374  and  _376
REMARK  161  A    between atoms: _376  and  _377
REMARK  162  A    between atoms: _376  and  _379
REMARK  163  A    between atoms: _379  and  _380
REMARK  164  A    between atoms: _382  and  _384
REMARK  165  A    between atoms: _384  and  _385
REMARK  166  A    between atoms: _384  and  _387
REMARK  167  A    between atoms: _387  and  _388
REMARK  168  A    between atoms: _394  and  _396
REMARK  169  A    between atoms: _396  and  _397
REMARK  170  A    between atoms: _396  and  _399
REMARK  171  A    between atoms: _402  and  _404
REMARK  172  A    between atoms: _404  and  _405
REMARK  173  A    between atoms: _407  and  _409
REMARK  174  A    between atoms: _409  and  _410
REMARK  175  A    between atoms: _412  and  _414
REMARK  176  A    between atoms: _414  and  _415
REMARK  177  A    between atoms: _414  and  _417
REMARK  178  A    between atoms: _417  and  _418
REMARK  179  A    between atoms: _420  and  _422
REMARK  180  A    between atoms: _422  and  _423
REMARK  181  A    between atoms: _422  and  _425
REMARK  182  A    between atoms: _425  and  _426
REMARK  183  A    between atoms: _429  and  _431
REMARK  184  A    between atoms: _431  and  _432
REMARK  185  A    between atoms: _431  and  _434
REMARK  186  A    between atoms: _434  and  _435
REMARK  187  A    between atoms: _435  and  _436
REMARK  188  A    between atoms: _436  and  _437
REMARK  189  A    between atoms: _446  and  _448
REMARK  190  A    between atoms: _448  and  _449
REMARK  191  A    between atoms: _448  and  _451
REMARK  192  A    between atoms: _451  and  _452
REMARK  193  A    between atoms: _456  and  _457
REMARK  194  A    between atoms: _462  and  _464
REMARK  195  A    between atoms: _464  and  _465
REMARK  196  A    between atoms: _464  and  _467
REMARK  197  A    between atoms: _467  and  _468
REMARK  198  A    between atoms: _471  and  _473
REMARK  199  A    between atoms: _473  and  _474
REMARK  200  A    between atoms: _473  and  _476
REMARK  201  A    between atoms: _476  and  _477
REMARK  202  A    between atoms: _483  and  _484
REMARK  203  A    between atoms: _489  and  _491
REMARK  204  A    between atoms: _491  and  _492
REMARK  205  A    between atoms: _491  and  _494
REMARK  206  A    between atoms: _494  and  _495
REMARK  207  A    between atoms: _498  and  _500
REMARK  208  A    between atoms: _500  and  _501
REMARK  209  A    between atoms: _500  and  _503
REMARK  210  A    between atoms: _503  and  _504
REMARK  211  A    between atoms: _504  and  _505
REMARK  212  A    between atoms: _508  and  _510
REMARK  213  A    between atoms: _510  and  _511
REMARK  214  A    between atoms: _514  and  _516
REMARK  215  A    between atoms: _516  and  _517
REMARK  216  A    between atoms: _516  and  _519
REMARK                            x       y       z     vdW  Elec       q    Type
REMARK                         _______ _______ _______ _____ _____    ______ ____
ROOT
ATOM      1  CG  LYS A   1       8.809  37.747  14.915  0.00  0.00    -0.000 C 
ENDROOT
BRANCH   1   2
ATOM      2  CB  LYS A   1       8.140  37.529  13.573  0.00  0.00    +0.025 C 
BRANCH   2   3
ATOM      3  CA  LYS A   1       6.634  37.803  13.623  0.00  0.00    +0.133 C 
BRANCH   3   4
ATOM      4  N   LYS A   1       5.950  37.183  12.494  0.00  0.00    -0.239 NA
ATOM      5  H   LYS A   1       6.509  36.767  11.722  0.00  0.00    +0.142 HD
ENDBRANCH   3   4
BRANCH   3   6
ATOM      6  C   LYS A   1       6.394  39.305  13.714  0.00  0.00    +0.224 C 
ATOM      7  O   LYS A   1       6.276  39.855  14.807  0.00  0.00    -0.287 OA
ENDBRANCH   3   6
ENDBRANCH   2   3
ENDBRANCH   1   2
BRANCH   1   8
ATOM      8  CD  LYS A   1      10.306  37.831  14.815  0.00  0.00    -0.024 C 
BRANCH   8   9
ATOM      9  CE  LYS A   1      10.890  38.224  16.161  0.00  0.00    -0.086 C 
BRANCH   9  10
ATOM     10  NZ  LYS A   1      12.334  38.575  16.059  0.00  0.00    +0.380 N 
ATOM     11  HZ1 LYS A   1      12.693  38.837  16.999  0.00  0.00    -0.089 HD
ATOM     12  HZ2 LYS A   1      12.864  37.755  15.700  0.00  0.00    -0.089 HD
ATOM     13  HZ3 LYS A   1      12.449  39.377  15.407  0.00  0.00    -0.089 HD
ENDBRANCH   9  10
ENDBRANCH   8   9
ENDBRANCH   1   8
TORSDOF 7
REMARK  Name = ../refined-set-2016/1atr/1atr_pocket.pdb
REMARK  216 active torsions:
REMARK  status: ('A' for Active; 'I' for Inactive)
REMARK    1  A    between atoms: _1  and  _3
REMARK    2  A    between atoms: _3  and  _4
REMARK    3  A    between atoms: _3  and  _6
REMARK    4  A    between atoms: _6  and  _7
REMARK    5  A    between atoms: _10  and  _12
REMARK    6  A    between atoms: _12  and  _13
REMARK    7  A    between atoms: _12  and  _15
REMARK    8  A    between atoms: _15  and  _16
REMARK    9  A    between atoms: _19  and  _21
REMARK   10  A    between atoms: _21  and  _22
REMARK   11  A    between atoms: _24  and  _26
REMARK   12  A    between atoms: _26  and  _27
REMARK   13  A    between atoms: _26  and  _29
REMARK   14  A    between atoms: _29  and  _30
REMARK   15  A    between atoms: _33  and  _35
REMARK   16  A    between atoms: _35  and  _36
REMARK   17  A    between atoms: _35  and  _38
REMARK   18  A    between atoms: _38  and  _39
REMARK   19  A    between atoms: _42  and  _44
REMARK   20  A    between atoms: _44  and  _45
REMARK   21  A    between atoms: _44  and  _47
REMARK   22  A    between atoms: _47  and  _48
REMARK   23  A    between atoms: _53  and  _54
REMARK   24  A    between atoms: _56  and  _58
REMARK   25  A    between atoms: _58  and  _59
REMARK   26  A    between atoms: _58  and  _61
REMARK   27  A    between atoms: _61  and  _62
REMARK   28  A    between atoms: _64  and  _66
REMARK   29  A    between atoms: _66  and  _67
REMARK   30  A    between atoms: _66  and  _69
REMARK   31  A    between atoms: _71  and  _73
REMARK   32  A    between atoms: _73  and  _74
REMARK   33  A    between atoms: _73  and  _76
REMARK   34  A    between atoms: _76  and  _77
REMARK   35  A    between atoms: _80  and  _82
REMARK   36  A    between atoms: _82  and  _83
REMARK   37  A    between atoms: _82  and  _85
REMARK   38  A    between atoms: _85  and  _86
REMARK   39  A    between atoms: _90  and  _91
REMARK   40  A    between atoms: _96  and  _98
REMARK   41  A    between atoms: _98  and  _99
REMARK   42  A    between atoms: _98  and  _101
REMARK   43  A    between atoms: _101  and  _102
REMARK   44  A    between atoms: _104  and  _106
REMARK   45  A    between atoms: _106  and  _107
REMARK   46  A    between atoms: _106  and  _109
REMARK   47  A    between atoms: _109  and  _110
REMARK   48  A    between atoms: _110  and  _111
REMARK   49  A    between atoms: _111  and  _112
REMARK   50  A    between atoms: _112  and  _113
REMARK   51  A    between atoms: _117  and  _119
REMARK   52  A    between atoms: _119  and  _120
REMARK   53  A    between atoms: _119  and  _122
REMARK   54  A    between atoms: _122  and  _123
REMARK   55  A    between atoms: _126  and  _128
REMARK   56  A    between atoms: _128  and  _129
REMARK   57  A    between atoms: _128  and  _131
REMARK   58  A    between atoms: _131  and  _132
REMARK   59  A    between atoms: _132  and  _133
REMARK   60  A    between atoms: _133  and  _134
REMARK   61  A    between atoms: _134  and  _135
REMARK   62  A    between atoms: _139  and  _141
REMARK   63  A    between atoms: _141  and  _142
REMARK   64  A    between atoms: _141  and  _144
REMARK   65  A    between atoms: _144  and  _145
REMARK   66  A    between atoms: _145  and  _146
REMARK   67  A    between atoms: _146  and  _147
REMARK   68  A    between atoms: _156  and  _158
REMARK   69  A    between atoms: _158  and  _159
REMARK   70  A    between atoms: _158  and  _161
REMARK   71  A    between atoms: _161  and  _162
REMARK   72  A    between atoms: _162  and  _163
REMARK   73  A    between atoms: _166  and  _168
REMARK   74  A    between atoms: _168  and  _169
REMARK   75  A    between atoms: _168  and  _171
REMARK   76  A    between atoms: _171  and  _172
REMARK   77  A    between atoms: _175  and  _177
REMARK   78  A    between atoms: _177  and  _178
REMARK   79  A    between atoms: _177  and  _180
REMARK   80  A    between atoms: _180  and  _181
REMARK   81  A    between atoms: _184  and  _186
REMARK   82  A    between atoms: _186  and  _187
REMARK   83  A    between atoms: _189  and  _191
REMARK   84  A    between atoms: _191  and  _192
REMARK   85  A    between atoms: _194  and  _196
REMARK   86  A    between atoms: _196  and  _197
REMARK   87  A    between atoms: _199  and  _201
REMARK   88  A    between atoms: _201  and  _202
REMARK   89  A    between atoms: _201  and  _204
REMARK   90  A    between atoms: _207  and  _209
REMARK   91  A    between atoms: _209  and  _210
REMARK   92  A    between atoms: _209  and  _212
REMARK   93  A    between atoms: _212  and  _213
REMARK   94  A    between atoms: _219  and  _221
REMARK   95  A    between atoms: _221  and  _222
REMARK   96  A    between atoms: _221  and  _224
REMARK   97  A    between atoms: _224  and  _225
REMARK   98  A    between atoms: _228  and  _230
REMARK   99  A    between atoms: _230  and  _231
REMARK  100  A    between atoms: _233  and  _235
REMARK  101  A    between atoms: _235  and  _236
REMARK  102  A    between atoms: _238  and  _240
REMARK  103  A    between atoms: _240  and  _241
REMARK  104  A    between atoms: _240  and  _243
REMARK  105  A    between atoms: _243  and  _244
REMARK  106  A    between atoms: _244  and  _245
REMARK  107  A    between atoms: _248  and  _250
REMARK  108  A    between atoms: _250  and  _251
REMARK  109  A    between atoms: _250  and  _253
REMARK  110  A    between atoms: _253  and  _254
REMARK  111  A    between atoms: _257  and  _259
REMARK  112  A    between atoms: _259  and  _260
REMARK  113  A    between atoms: _259  and  _262
REMARK  114  A    between atoms: _262  and  _263
REMARK  115  A    between atoms: _269  and  _271
REMARK  116  A    between atoms: _271  and  _272
REMARK  117  A    between atoms: _271  and  _274
REMARK  118  A    between atoms: _274  and  _275
REMARK  119  A    between atoms: _278  and  _280
REMARK  120  A    between atoms: _280  and  _281
REMARK  121  A    between atoms: _280  and  _283
REMARK  122  A    between atoms: _285  and  _287
REMARK  123  A    between atoms: _287  and  _288
REMARK  124  A    between atoms: _287  and  _290
REMARK  125  A    between atoms: _290  and  _291
REMARK  126  A    between atoms: _291  and  _292
REMARK  127  A    between atoms: _295  and  _297
REMARK  128  A    between atoms: _297  and  _298
REMARK  129  A    between atoms: _297  and  _300
REMARK  130  A    between atoms: _300  and  _301
REMARK  131  A    between atoms: _301  and  _302
REMARK  132  A    between atoms: _302  and  _303
REMARK  133  A    between atoms: _312  and  _314
REMARK  134  A    between atoms: _314  and  _315
REMARK  135  A    between atoms: _318  and  _320
REMARK  136  A    between atoms: _320  and  _321
REMARK  137  A    between atoms: _320  and  _323
REMARK  138  A    between atoms: _323  and  _324
REMARK  139  A    between atoms: _324  and  _325
REMARK  140  A    between atoms: _325  and  _326
REMARK  141  A    between atoms: _326  and  _327
REMARK  142  A    between atoms: _331  and  _333
REMARK  143  A    between atoms: _333  and  _334
REMARK  144  A    between atoms: _333  and  _336
REMARK  145  A    between atoms: _336  and  _337
REMARK  146  A    between atoms: _337  and  _338
REMARK  147  A    between atoms: _338  and  _339
REMARK  148  A    between atoms: _348  and  _350
REMARK  149  A    between atoms: _350  and  _351
REMARK  150  A    between atoms: _350  and  _353
REMARK  151  A    between atoms: _353  and  _354
REMARK  152  A    between atoms: _357  and  _359
REMARK  153  A    between atoms: _359  and  _360
REMARK  154  A    between atoms: _359  and  _362
REMARK  155  A    between atoms: _362  and  _363
REMARK  156  A    between atoms: _366  and  _368
REMARK  157  A    between atoms: _368  and  _369
REMARK  158  A    between atoms: _368  and  _371
REMARK  159  A    between atoms: _371  and  _372
REMARK  160  A    between atoms: _374  and  _376
REMARK  161  A    between atoms: _376  and  _377
REMARK  162  A    between atoms: _376  and  _379
REMARK  163  A    between atoms: _379  and  _380
REMARK  164  A    between atoms: _382  and  _384
REMARK  165  A    between atoms: _384  and  _385
REMARK  166  A    between atoms: _384  and  _387
REMARK  167  A    between atoms: _387  and  _388
REMARK  168  A    between atoms: _394  and  _396
REMARK  169  A    between atoms: _396  and  _397
REMARK  170  A    between atoms: _396  and  _399
REMARK  171  A    between atoms: _402  and  _404
REMARK  172  A    between atoms: _404  and  _405
REMARK  173  A    between atoms: _407  and  _409
REMARK  174  A    between atoms: _409  and  _410
REMARK  175  A    between atoms: _412  and  _414
REMARK  176  A    between atoms: _414  and  _415
REMARK  177  A    between atoms: _414  and  _417
REMARK  178  A    between atoms: _417  and  _418
REMARK  179  A    between atoms: _420  and  _422
REMARK  180  A    between atoms: _422  and  _423
REMARK  181  A    between atoms: _422  and  _425
REMARK  182  A    between atoms: _425  and  _426
REMARK  183  A    between atoms: _429  and  _431
REMARK  184  A    between atoms: _431  and  _432
REMARK  185  A    between atoms: _431  and  _434
REMARK  186  A    between atoms: _434  and  _435
REMARK  187  A    between atoms: _435  and  _436
REMARK  188  A    between atoms: _436  and  _437
REMARK  189  A    between atoms: _446  and  _448
REMARK  190  A    between atoms: _448  and  _449
REMARK  191  A    between atoms: _448  and  _451
REMARK  192  A    between atoms: _451  and  _452
REMARK  193  A    between atoms: _456  and  _457
REMARK  194  A    between atoms: _462  and  _464
REMARK  195  A    between atoms: _464  and  _465
REMARK  196  A    between atoms: _464  and  _467
REMARK  197  A    between atoms: _467  and  _468
REMARK  198  A    between atoms: _471  and  _473
REMARK  199  A    between atoms: _473  and  _474
REMARK  200  A    between atoms: _473  and  _476
REMARK  201  A    between atoms: _476  and  _477
REMARK  202  A    between atoms: _483  and  _484
REMARK  203  A    between atoms: _489  and  _491
REMARK  204  A    between atoms: _491  and  _492
REMARK  205  A    between atoms: _491  and  _494
REMARK  206  A    between atoms: _494  and  _495
REMARK  207  A    between atoms: _498  and  _500
REMARK  208  A    between atoms: _500  and  _501
REMARK  209  A    between atoms: _500  and  _503
REMARK  210  A    between atoms: _503  and  _504
REMARK  211  A    between atoms: _504  and  _505
REMARK  212  A    between atoms: _508  and  _510
REMARK  213  A    between atoms: _510  and  _511
REMARK  214  A    between atoms: _514  and  _516
REMARK  215  A    between atoms: _516  and  _517
REMARK  216  A    between atoms: _516  and  _519
REMARK                            x       y       z     vdW  Elec       q    Type
REMARK                         _______ _______ _______ _____ _____    ______ ____
ROOT
ATOM      1  CA  ASP A   1       8.585  27.533  19.982  0.00  0.00    +0.144 C 
ENDROOT
BRANCH   1   2
ATOM      2  N   ASP A   1       8.014  28.549  19.091  0.00  0.00    -0.239 NA
ATOM      3  H   ASP A   1       8.657  29.079  18.469  0.00  0.00    +0.142 HD
ENDBRANCH   1   2
BRANCH   1   4
ATOM      4  C   ASP A   1       8.030  26.134  19.796  0.00  0.00    +0.225 C 
ATOM      5  O   ASP A   1       8.107  25.315  20.718  0.00  0.00    -0.287 OA
ENDBRANCH   1   4
BRANCH   1   6
ATOM      6  CB  ASP A   1       8.426  27.919  21.457  0.00  0.00    +0.139 C 
BRANCH   6   7
ATOM      7  CG  ASP A   1       9.603  28.713  21.991  0.00  0.00    +0.367 C 
ATOM      8  OD2 ASP A   1       9.642  28.942  23.226  0.00  0.00    -0.246 OA
ATOM      9  OD1 ASP A   1      10.479  29.116  21.192  0.00  0.00    -0.246 OA
ENDBRANCH   6   7
ENDBRANCH   1   6
TORSDOF 4
REMARK  Name = ../refined-set-2016/1atr/1atr_pocket.pdb
REMARK  216 active torsions:
REMARK  status: ('A' for Active; 'I' for Inactive)
REMARK    1  A    between atoms: _1  and  _3
REMARK    2  A    between atoms: _3  and  _4
REMARK    3  A    between atoms: _3  and  _6
REMARK    4  A    between atoms: _6  and  _7
REMARK    5  A    between atoms: _10  and  _12
REMARK    6  A    between atoms: _12  and  _13
REMARK    7  A    between atoms: _12  and  _15
REMARK    8  A    between atoms: _15  and  _16
REMARK    9  A    between atoms: _19  and  _21
REMARK   10  A    between atoms: _21  and  _22
REMARK   11  A    between atoms: _24  and  _26
REMARK   12  A    between atoms: _26  and  _27
REMARK   13  A    between atoms: _26  and  _29
REMARK   14  A    between atoms: _29  and  _30
REMARK   15  A    between atoms: _33  and  _35
REMARK   16  A    between atoms: _35  and  _36
REMARK   17  A    between atoms: _35  and  _38
REMARK   18  A    between atoms: _38  and  _39
REMARK   19  A    between atoms: _42  and  _44
REMARK   20  A    between atoms: _44  and  _45
REMARK   21  A    between atoms: _44  and  _47
REMARK   22  A    between atoms: _47  and  _48
REMARK   23  A    between atoms: _53  and  _54
REMARK   24  A    between atoms: _56  and  _58
REMARK   25  A    between atoms: _58  and  _59
REMARK   26  A    between atoms: _58  and  _61
REMARK   27  A    between atoms: _61  and  _62
REMARK   28  A    between atoms: _64  and  _66
REMARK   29  A    between atoms: _66  and  _67
REMARK   30  A    between atoms: _66  and  _69
REMARK   31  A    between atoms: _71  and  _73
REMARK   32  A    between atoms: _73  and  _74
REMARK   33  A    between atoms: _73  and  _76
REMARK   34  A    between atoms: _76  and  _77
REMARK   35  A    between atoms: _80  and  _82
REMARK   36  A    between atoms: _82  and  _83
REMARK   37  A    between atoms: _82  and  _85
REMARK   38  A    between atoms: _85  and  _86
REMARK   39  A    between atoms: _90  and  _91
REMARK   40  A    between atoms: _96  and  _98
REMARK   41  A    between atoms: _98  and  _99
REMARK   42  A    between atoms: _98  and  _101
REMARK   43  A    between atoms: _101  and  _102
REMARK   44  A    between atoms: _104  and  _106
REMARK   45  A    between atoms: _106  and  _107
REMARK   46  A    between atoms: _106  and  _109
REMARK   47  A    between atoms: _109  and  _110
REMARK   48  A    between atoms: _110  and  _111
REMARK   49  A    between atoms: _111  and  _112
REMARK   50  A    between atoms: _112  and  _113
REMARK   51  A    between atoms: _117  and  _119
REMARK   52  A    between atoms: _119  and  _120
REMARK   53  A    between atoms: _119  and  _122
REMARK   54  A    between atoms: _122  and  _123
REMARK   55  A    between atoms: _126  and  _128
REMARK   56  A    between atoms: _128  and  _129
REMARK   57  A    between atoms: _128  and  _131
REMARK   58  A    between atoms: _131  and  _132
REMARK   59  A    between atoms: _132  and  _133
REMARK   60  A    between atoms: _133  and  _134
REMARK   61  A    between atoms: _134  and  _135
REMARK   62  A    between atoms: _139  and  _141
REMARK   63  A    between atoms: _141  and  _142
REMARK   64  A    between atoms: _141  and  _144
REMARK   65  A    between atoms: _144  and  _145
REMARK   66  A    between atoms: _145  and  _146
REMARK   67  A    between atoms: _146  and  _147
REMARK   68  A    between atoms: _156  and  _158
REMARK   69  A    between atoms: _158  and  _159
REMARK   70  A    between atoms: _158  and  _161
REMARK   71  A    between atoms: _161  and  _162
REMARK   72  A    between atoms: _162  and  _163
REMARK   73  A    between atoms: _166  and  _168
REMARK   74  A    between atoms: _168  and  _169
REMARK   75  A    between atoms: _168  and  _171
REMARK   76  A    between atoms: _171  and  _172
REMARK   77  A    between atoms: _175  and  _177
REMARK   78  A    between atoms: _177  and  _178
REMARK   79  A    between atoms: _177  and  _180
REMARK   80  A    between atoms: _180  and  _181
REMARK   81  A    between atoms: _184  and  _186
REMARK   82  A    between atoms: _186  and  _187
REMARK   83  A    between atoms: _189  and  _191
REMARK   84  A    between atoms: _191  and  _192
REMARK   85  A    between atoms: _194  and  _196
REMARK   86  A    between atoms: _196  and  _197
REMARK   87  A    between atoms: _199  and  _201
REMARK   88  A    between atoms: _201  and  _202
REMARK   89  A    between atoms: _201  and  _204
REMARK   90  A    between atoms: _207  and  _209
REMARK   91  A    between atoms: _209  and  _210
REMARK   92  A    between atoms: _209  and  _212
REMARK   93  A    between atoms: _212  and  _213
REMARK   94  A    between atoms: _219  and  _221
REMARK   95  A    between atoms: _221  and  _222
REMARK   96  A    between atoms: _221  and  _224
REMARK   97  A    between atoms: _224  and  _225
REMARK   98  A    between atoms: _228  and  _230
REMARK   99  A    between atoms: _230  and  _231
REMARK  100  A    between atoms: _233  and  _235
REMARK  101  A    between atoms: _235  and  _236
REMARK  102  A    between atoms: _238  and  _240
REMARK  103  A    between atoms: _240  and  _241
REMARK  104  A    between atoms: _240  and  _243
REMARK  105  A    between atoms: _243  and  _244
REMARK  106  A    between atoms: _244  and  _245
REMARK  107  A    between atoms: _248  and  _250
REMARK  108  A    between atoms: _250  and  _251
REMARK  109  A    between atoms: _250  and  _253
REMARK  110  A    between atoms: _253  and  _254
REMARK  111  A    between atoms: _257  and  _259
REMARK  112  A    between atoms: _259  and  _260
REMARK  113  A    between atoms: _259  and  _262
REMARK  114  A    between atoms: _262  and  _263
REMARK  115  A    between atoms: _269  and  _271
REMARK  116  A    between atoms: _271  and  _272
REMARK  117  A    between atoms: _271  and  _274
REMARK  118  A    between atoms: _274  and  _275
REMARK  119  A    between atoms: _278  and  _280
REMARK  120  A    between atoms: _280  and  _281
REMARK  121  A    between atoms: _280  and  _283
REMARK  122  A    between atoms: _285  and  _287
REMARK  123  A    between atoms: _287  and  _288
REMARK  124  A    between atoms: _287  and  _290
REMARK  125  A    between atoms: _290  and  _291
REMARK  126  A    between atoms: _291  and  _292
REMARK  127  A    between atoms: _295  and  _297
REMARK  128  A    between atoms: _297  and  _298
REMARK  129  A    between atoms: _297  and  _300
REMARK  130  A    between atoms: _300  and  _301
REMARK  131  A    between atoms: _301  and  _302
REMARK  132  A    between atoms: _302  and  _303
REMARK  133  A    between atoms: _312  and  _314
REMARK  134  A    between atoms: _314  and  _315
REMARK  135  A    between atoms: _318  and  _320
REMARK  136  A    between atoms: _320  and  _321
REMARK  137  A    between atoms: _320  and  _323
REMARK  138  A    between atoms: _323  and  _324
REMARK  139  A    between atoms: _324  and  _325
REMARK  140  A    between atoms: _325  and  _326
REMARK  141  A    between atoms: _326  and  _327
REMARK  142  A    between atoms: _331  and  _333
REMARK  143  A    between atoms: _333  and  _334
REMARK  144  A    between atoms: _333  and  _336
REMARK  145  A    between atoms: _336  and  _337
REMARK  146  A    between atoms: _337  and  _338
REMARK  147  A    between atoms: _338  and  _339
REMARK  148  A    between atoms: _348  and  _350
REMARK  149  A    between atoms: _350  and  _351
REMARK  150  A    between atoms: _350  and  _353
REMARK  151  A    between atoms: _353  and  _354
REMARK  152  A    between atoms: _357  and  _359
REMARK  153  A    between atoms: _359  and  _360
REMARK  154  A    between atoms: _359  and  _362
REMARK  155  A    between atoms: _362  and  _363
REMARK  156  A    between atoms: _366  and  _368
REMARK  157  A    between atoms: _368  and  _369
REMARK  158  A    between atoms: _368  and  _371
REMARK  159  A    between atoms: _371  and  _372
REMARK  160  A    between atoms: _374  and  _376
REMARK  161  A    between atoms: _376  and  _377
REMARK  162  A    between atoms: _376  and  _379
REMARK  163  A    between atoms: _379  and  _380
REMARK  164  A    between atoms: _382  and  _384
REMARK  165  A    between atoms: _384  and  _385
REMARK  166  A    between atoms: _384  and  _387
REMARK  167  A    between atoms: _387  and  _388
REMARK  168  A    between atoms: _394  and  _396
REMARK  169  A    between atoms: _396  and  _397
REMARK  170  A    between atoms: _396  and  _399
REMARK  171  A    between atoms: _402  and  _404
REMARK  172  A    between atoms: _404  and  _405
REMARK  173  A    between atoms: _407  and  _409
REMARK  174  A    between atoms: _409  and  _410
REMARK  175  A    between atoms: _412  and  _414
REMARK  176  A    between atoms: _414  and  _415
REMARK  177  A    between atoms: _414  and  _417
REMARK  178  A    between atoms: _417  and  _418
REMARK  179  A    between atoms: _420  and  _422
REMARK  180  A    between atoms: _422  and  _423
REMARK  181  A    between atoms: _422  and  _425
REMARK  182  A    between atoms: _425  and  _426
REMARK  183  A    between atoms: _429  and  _431
REMARK  184  A    between atoms: _431  and  _432
REMARK  185  A    between atoms: _431  and  _434
REMARK  186  A    between atoms: _434  and  _435
REMARK  187  A    between atoms: _435  and  _436
REMARK  188  A    between atoms: _436  and  _437
REMARK  189  A    between atoms: _446  and  _448
REMARK  190  A    between atoms: _448  and  _449
REMARK  191  A    between atoms: _448  and  _451
REMARK  192  A    between atoms: _451  and  _452
REMARK  193  A    between atoms: _456  and  _457
REMARK  194  A    between atoms: _462  and  _464
REMARK  195  A    between atoms: _464  and  _465
REMARK  196  A    between atoms: _464  and  _467
REMARK  197  A    between atoms: _467  and  _468
REMARK  198  A    between atoms: _471  and  _473
REMARK  199  A    between atoms: _473  and  _474
REMARK  200  A    between atoms: _473  and  _476
REMARK  201  A    between atoms: _476  and  _477
REMARK  202  A    between atoms: _483  and  _484
REMARK  203  A    between atoms: _489  and  _491
REMARK  204  A    between atoms: _491  and  _492
REMARK  205  A    between atoms: _491  and  _494
REMARK  206  A    between atoms: _494  and  _495
REMARK  207  A    between atoms: _498  and  _500
REMARK  208  A    between atoms: _500  and  _501
REMARK  209  A    between atoms: _500  and  _503
REMARK  210  A    between atoms: _503  and  _504
REMARK  211  A    between atoms: _504  and  _505
REMARK  212  A    between atoms: _508  and  _510
REMARK  213  A    between atoms: _510  and  _511
REMARK  214  A    between atoms: _514  and  _516
REMARK  215  A    between atoms: _516  and  _517
REMARK  216  A    between atoms: _516  and  _519
REMARK                            x       y       z     vdW  Elec       q    Type
REMARK                         _______ _______ _______ _____ _____    ______ ____
ROOT
ATOM      1  C   LYS A   1      10.438  22.301  19.891  0.00  0.00    +0.238 C 
ATOM      2  N   ARG A   2       9.932  23.099  20.829  0.00  0.00    -0.298 N 
ATOM      3  H   ARG A   2       9.514  24.011  20.556  0.00  0.00    +0.150 HD
ATOM      4  O   LYS A   1      10.966  21.217  20.159  0.00  0.00    -0.274 OA
ENDROOT
BRANCH   1   5
ATOM      5  CA  LYS A   1      10.334  22.779  18.439  0.00  0.00    +0.145 C 
BRANCH   5   6
ATOM      6  N   LYS A   1       9.254  23.742  18.285  0.00  0.00    -0.238 NA
ATOM      7  H   LYS A   1       9.478  24.715  17.996  0.00  0.00    +0.142 HD
ENDBRANCH   5   6
BRANCH   5   8
ATOM      8  CB  LYS A   1      11.660  23.395  17.974  0.00  0.00    +0.026 C 
BRANCH   8   9
ATOM      9  CG  LYS A   1      12.780  22.387  17.783  0.00  0.00    -0.000 C 
BRANCH   9  10
ATOM     10  CD  LYS A   1      13.906  23.045  17.037  0.00  0.00    -0.024 C 
BRANCH  10  11
ATOM     11  CE  LYS A   1      15.075  22.100  16.809  0.00  0.00    -0.086 C 
BRANCH  11  12
ATOM     12  NZ  LYS A   1      16.147  22.838  16.096  0.00  0.00    +0.380 N 
ATOM     13  HZ1 LYS A   1      16.452  23.647  16.674  0.00  0.00    -0.089 HD
ATOM     14  HZ2 LYS A   1      16.954  22.203  15.933  0.00  0.00    -0.089 HD
ATOM     15  HZ3 LYS A   1      15.783  23.179  15.183  0.00  0.00    -0.089 HD
ENDBRANCH  11  12
ENDBRANCH  10  11
ENDBRANCH   9  10
ENDBRANCH   8   9
ENDBRANCH   5   8
ENDBRANCH   1   5
BRANCH   2  16
ATOM     16  CA  ARG A   2       9.957  22.709  22.239  0.00  0.00    +0.137 C 
BRANCH  16  17
ATOM     17  C   ARG A   2       8.843  21.695  22.549  0.00  0.00    +0.227 C 
ATOM     18  O   ARG A   2       8.957  20.898  23.473  0.00  0.00    -0.286 OA
ENDBRANCH  16  17
BRANCH  16  19
ATOM     19  CB  ARG A   2       9.831  23.930  23.154  0.00  0.00    +0.031 C 
BRANCH  19  20
ATOM     20  CG  ARG A   2      10.963  24.968  23.033  0.00  0.00    +0.045 C 
BRANCH  20  21
ATOM     21  CD  ARG A   2      10.959  25.900  24.241  0.00  0.00    +0.174 C 
BRANCH  21  22
ATOM     22  NE  ARG A   2      11.929  27.000  24.196  0.00  0.00    -0.265 N 
ATOM     23  CZ  ARG A   2      13.156  26.955  24.723  0.00  0.00    +0.342 C 
ATOM     24  NH2 ARG A   2      13.584  25.853  25.314  0.00  0.00    -0.292 N 
ATOM     25 HH21 ARG A   2      14.539  25.820  25.724  0.00  0.00    +0.255 HD
ATOM     26 HH22 ARG A   2      12.965  25.019  25.369  0.00  0.00    +0.255 HD
ATOM     27  NH1 ARG A   2      13.909  28.050  24.768  0.00  0.00    -0.292 N 
ATOM     28 HH11 ARG A   2      14.863  28.008  25.179  0.00  0.00    +0.255 HD
ATOM     29 HH12 ARG A   2      13.544  28.948  24.392  0.00  0.00    +0.255 HD
ATOM     30  HE  ARG A   2      11.641  27.878  23.719  0.00  0.00    +0.259 HD
ENDBRANCH  21  22
ENDBRANCH  20  21
ENDBRANCH  19  20
ENDBRANCH  16  19
ENDBRANCH   2  16
TORSDOF 13
REMARK  Name = ../refined-set-2016/1atr/1atr_pocket.pdb
REMARK  216 active torsions:
REMARK  status: ('A' for Active; 'I' for Inactive)
REMARK    1  A    between atoms: _1  and  _3
REMARK    2  A    between atoms: _3  and  _4
REMARK    3  A    between atoms: _3  and  _6
REMARK    4  A    between atoms: _6  and  _7
REMARK    5  A    between atoms: _10  and  _12
REMARK    6  A    between atoms: _12  and  _13
REMARK    7  A    between atoms: _12  and  _15
REMARK    8  A    between atoms: _15  and  _16
REMARK    9  A    between atoms: _19  and  _21
REMARK   10  A    between atoms: _21  and  _22
REMARK   11  A    between atoms: _24  and  _26
REMARK   12  A    between atoms: _26  and  _27
REMARK   13  A    between atoms: _26  and  _29
REMARK   14  A    between atoms: _29  and  _30
REMARK   15  A    between atoms: _33  and  _35
REMARK   16  A    between atoms: _35  and  _36
REMARK   17  A    between atoms: _35  and  _38
REMARK   18  A    between atoms: _38  and  _39
REMARK   19  A    between atoms: _42  and  _44
REMARK   20  A    between atoms: _44  and  _45
REMARK   21  A    between atoms: _44  and  _47
REMARK   22  A    between atoms: _47  and  _48
REMARK   23  A    between atoms: _53  and  _54
REMARK   24  A    between atoms: _56  and  _58
REMARK   25  A    between atoms: _58  and  _59
REMARK   26  A    between atoms: _58  and  _61
REMARK   27  A    between atoms: _61  and  _62
REMARK   28  A    between atoms: _64  and  _66
REMARK   29  A    between atoms: _66  and  _67
REMARK   30  A    between atoms: _66  and  _69
REMARK   31  A    between atoms: _71  and  _73
REMARK   32  A    between atoms: _73  and  _74
REMARK   33  A    between atoms: _73  and  _76
REMARK   34  A    between atoms: _76  and  _77
REMARK   35  A    between atoms: _80  and  _82
REMARK   36  A    between atoms: _82  and  _83
REMARK   37  A    between atoms: _82  and  _85
REMARK   38  A    between atoms: _85  and  _86
REMARK   39  A    between atoms: _90  and  _91
REMARK   40  A    between atoms: _96  and  _98
REMARK   41  A    between atoms: _98  and  _99
REMARK   42  A    between atoms: _98  and  _101
REMARK   43  A    between atoms: _101  and  _102
REMARK   44  A    between atoms: _104  and  _106
REMARK   45  A    between atoms: _106  and  _107
REMARK   46  A    between atoms: _106  and  _109
REMARK   47  A    between atoms: _109  and  _110
REMARK   48  A    between atoms: _110  and  _111
REMARK   49  A    between atoms: _111  and  _112
REMARK   50  A    between atoms: _112  and  _113
REMARK   51  A    between atoms: _117  and  _119
REMARK   52  A    between atoms: _119  and  _120
REMARK   53  A    between atoms: _119  and  _122
REMARK   54  A    between atoms: _122  and  _123
REMARK   55  A    between atoms: _126  and  _128
REMARK   56  A    between atoms: _128  and  _129
REMARK   57  A    between atoms: _128  and  _131
REMARK   58  A    between atoms: _131  and  _132
REMARK   59  A    between atoms: _132  and  _133
REMARK   60  A    between atoms: _133  and  _134
REMARK   61  A    between atoms: _134  and  _135
REMARK   62  A    between atoms: _139  and  _141
REMARK   63  A    between atoms: _141  and  _142
REMARK   64  A    between atoms: _141  and  _144
REMARK   65  A    between atoms: _144  and  _145
REMARK   66  A    between atoms: _145  and  _146
REMARK   67  A    between atoms: _146  and  _147
REMARK   68  A    between atoms: _156  and  _158
REMARK   69  A    between atoms: _158  and  _159
REMARK   70  A    between atoms: _158  and  _161
REMARK   71  A    between atoms: _161  and  _162
REMARK   72  A    between atoms: _162  and  _163
REMARK   73  A    between atoms: _166  and  _168
REMARK   74  A    between atoms: _168  and  _169
REMARK   75  A    between atoms: _168  and  _171
REMARK   76  A    between atoms: _171  and  _172
REMARK   77  A    between atoms: _175  and  _177
REMARK   78  A    between atoms: _177  and  _178
REMARK   79  A    between atoms: _177  and  _180
REMARK   80  A    between atoms: _180  and  _181
REMARK   81  A    between atoms: _184  and  _186
REMARK   82  A    between atoms: _186  and  _187
REMARK   83  A    between atoms: _189  and  _191
REMARK   84  A    between atoms: _191  and  _192
REMARK   85  A    between atoms: _194  and  _196
REMARK   86  A    between atoms: _196  and  _197
REMARK   87  A    between atoms: _199  and  _201
REMARK   88  A    between atoms: _201  and  _202
REMARK   89  A    between atoms: _201  and  _204
REMARK   90  A    between atoms: _207  and  _209
REMARK   91  A    between atoms: _209  and  _210
REMARK   92  A    between atoms: _209  and  _212
REMARK   93  A    between atoms: _212  and  _213
REMARK   94  A    between atoms: _219  and  _221
REMARK   95  A    between atoms: _221  and  _222
REMARK   96  A    between atoms: _221  and  _224
REMARK   97  A    between atoms: _224  and  _225
REMARK   98  A    between atoms: _228  and  _230
REMARK   99  A    between atoms: _230  and  _231
REMARK  100  A    between atoms: _233  and  _235
REMARK  101  A    between atoms: _235  and  _236
REMARK  102  A    between atoms: _238  and  _240
REMARK  103  A    between atoms: _240  and  _241
REMARK  104  A    between atoms: _240  and  _243
REMARK  105  A    between atoms: _243  and  _244
REMARK  106  A    between atoms: _244  and  _245
REMARK  107  A    between atoms: _248  and  _250
REMARK  108  A    between atoms: _250  and  _251
REMARK  109  A    between atoms: _250  and  _253
REMARK  110  A    between atoms: _253  and  _254
REMARK  111  A    between atoms: _257  and  _259
REMARK  112  A    between atoms: _259  and  _260
REMARK  113  A    between atoms: _259  and  _262
REMARK  114  A    between atoms: _262  and  _263
REMARK  115  A    between atoms: _269  and  _271
REMARK  116  A    between atoms: _271  and  _272
REMARK  117  A    between atoms: _271  and  _274
REMARK  118  A    between atoms: _274  and  _275
REMARK  119  A    between atoms: _278  and  _280
REMARK  120  A    between atoms: _280  and  _281
REMARK  121  A    between atoms: _280  and  _283
REMARK  122  A    between atoms: _285  and  _287
REMARK  123  A    between atoms: _287  and  _288
REMARK  124  A    between atoms: _287  and  _290
REMARK  125  A    between atoms: _290  and  _291
REMARK  126  A    between atoms: _291  and  _292
REMARK  127  A    between atoms: _295  and  _297
REMARK  128  A    between atoms: _297  and  _298
REMARK  129  A    between atoms: _297  and  _300
REMARK  130  A    between atoms: _300  and  _301
REMARK  131  A    between atoms: _301  and  _302
REMARK  132  A    between atoms: _302  and  _303
REMARK  133  A    between atoms: _312  and  _314
REMARK  134  A    between atoms: _314  and  _315
REMARK  135  A    between atoms: _318  and  _320
REMARK  136  A    between atoms: _320  and  _321
REMARK  137  A    between atoms: _320  and  _323
REMARK  138  A    between atoms: _323  and  _324
REMARK  139  A    between atoms: _324  and  _325
REMARK  140  A    between atoms: _325  and  _326
REMARK  141  A    between atoms: _326  and  _327
REMARK  142  A    between atoms: _331  and  _333
REMARK  143  A    between atoms: _333  and  _334
REMARK  144  A    between atoms: _333  and  _336
REMARK  145  A    between atoms: _336  and  _337
REMARK  146  A    between atoms: _337  and  _338
REMARK  147  A    between atoms: _338  and  _339
REMARK  148  A    between atoms: _348  and  _350
REMARK  149  A    between atoms: _350  and  _351
REMARK  150  A    between atoms: _350  and  _353
REMARK  151  A    between atoms: _353  and  _354
REMARK  152  A    between atoms: _357  and  _359
REMARK  153  A    between atoms: _359  and  _360
REMARK  154  A    between atoms: _359  and  _362
REMARK  155  A    between atoms: _362  and  _363
REMARK  156  A    between atoms: _366  and  _368
REMARK  157  A    between atoms: _368  and  _369
REMARK  158  A    between atoms: _368  and  _371
REMARK  159  A    between atoms: _371  and  _372
REMARK  160  A    between atoms: _374  and  _376
REMARK  161  A    between atoms: _376  and  _377
REMARK  162  A    between atoms: _376  and  _379
REMARK  163  A    between atoms: _379  and  _380
REMARK  164  A    between atoms: _382  and  _384
REMARK  165  A    between atoms: _384  and  _385
REMARK  166  A    between atoms: _384  and  _387
REMARK  167  A    between atoms: _387  and  _388
REMARK  168  A    between atoms: _394  and  _396
REMARK  169  A    between atoms: _396  and  _397
REMARK  170  A    between atoms: _396  and  _399
REMARK  171  A    between atoms: _402  and  _404
REMARK  172  A    between atoms: _404  and  _405
REMARK  173  A    between atoms: _407  and  _409
REMARK  174  A    between atoms: _409  and  _410
REMARK  175  A    between atoms: _412  and  _414
REMARK  176  A    between atoms: _414  and  _415
REMARK  177  A    between atoms: _414  and  _417
REMARK  178  A    between atoms: _417  and  _418
REMARK  179  A    between atoms: _420  and  _422
REMARK  180  A    between atoms: _422  and  _423
REMARK  181  A    between atoms: _422  and  _425
REMARK  182  A    between atoms: _425  and  _426
REMARK  183  A    between atoms: _429  and  _431
REMARK  184  A    between atoms: _431  and  _432
REMARK  185  A    between atoms: _431  and  _434
REMARK  186  A    between atoms: _434  and  _435
REMARK  187  A    between atoms: _435  and  _436
REMARK  188  A    between atoms: _436  and  _437
REMARK  189  A    between atoms: _446  and  _448
REMARK  190  A    between atoms: _448  and  _449
REMARK  191  A    between atoms: _448  and  _451
REMARK  192  A    between atoms: _451  and  _452
REMARK  193  A    between atoms: _456  and  _457
REMARK  194  A    between atoms: _462  and  _464
REMARK  195  A    between atoms: _464  and  _465
REMARK  196  A    between atoms: _464  and  _467
REMARK  197  A    between atoms: _467  and  _468
REMARK  198  A    between atoms: _471  and  _473
REMARK  199  A    between atoms: _473  and  _474
REMARK  200  A    between atoms: _473  and  _476
REMARK  201  A    between atoms: _476  and  _477
REMARK  202  A    between atoms: _483  and  _484
REMARK  203  A    between atoms: _489  and  _491
REMARK  204  A    between atoms: _491  and  _492
REMARK  205  A    between atoms: _491  and  _494
REMARK  206  A    between atoms: _494  and  _495
REMARK  207  A    between atoms: _498  and  _500
REMARK  208  A    between atoms: _500  and  _501
REMARK  209  A    between atoms: _500  and  _503
REMARK  210  A    between atoms: _503  and  _504
REMARK  211  A    between atoms: _504  and  _505
REMARK  212  A    between atoms: _508  and  _510
REMARK  213  A    between atoms: _510  and  _511
REMARK  214  A    between atoms: _514  and  _516
REMARK  215  A    between atoms: _516  and  _517
REMARK  216  A    between atoms: _516  and  _519
REMARK                            x       y       z     vdW  Elec       q    Type
REMARK                         _______ _______ _______ _____ _____    ______ ____
ROOT
ATOM      1  CA  GLU A   1      22.782  19.777  14.013  0.00  0.00    +0.134 C 
ENDROOT
BRANCH   1   2
ATOM      2  N   GLU A   1      22.328  18.416  14.270  0.00  0.00    -0.239 NA
ATOM      3  H   GLU A   1      21.665  18.244  15.053  0.00  0.00    +0.142 HD
ENDBRANCH   1   2
BRANCH   1   4
ATOM      4  C   GLU A   1      24.294  19.954  14.133  0.00  0.00    +0.224 C 
ATOM      5  O   GLU A   1      24.911  20.525  13.231  0.00  0.00    -0.287 OA
ENDBRANCH   1   4
BRANCH   1   6
ATOM      6  CB  GLU A   1      22.016  20.780  14.883  0.00  0.00    +0.037 C 
BRANCH   6   7
ATOM      7  CG  GLU A   1      20.563  20.924  14.453  0.00  0.00    +0.116 C 
BRANCH   7   8
ATOM      8  CD  GLU A   1      19.659  21.537  15.504  0.00  0.00    +0.365 C 
ATOM      9  OE2 GLU A   1      20.094  21.790  16.643  0.00  0.00    -0.246 OA
ATOM     10  OE1 GLU A   1      18.484  21.753  15.187  0.00  0.00    -0.246 OA
ENDBRANCH   7   8
ENDBRANCH   6   7
ENDBRANCH   1   6
TORSDOF 5
REMARK  Name = ../refined-set-2016/1atr/1atr_pocket.pdb
REMARK  216 active torsions:
REMARK  status: ('A' for Active; 'I' for Inactive)
REMARK    1  A    between atoms: _1  and  _3
REMARK    2  A    between atoms: _3  and  _4
REMARK    3  A    between atoms: _3  and  _6
REMARK    4  A    between atoms: _6  and  _7
REMARK    5  A    between atoms: _10  and  _12
REMARK    6  A    between atoms: _12  and  _13
REMARK    7  A    between atoms: _12  and  _15
REMARK    8  A    between atoms: _15  and  _16
REMARK    9  A    between atoms: _19  and  _21
REMARK   10  A    between atoms: _21  and  _22
REMARK   11  A    between atoms: _24  and  _26
REMARK   12  A    between atoms: _26  and  _27
REMARK   13  A    between atoms: _26  and  _29
REMARK   14  A    between atoms: _29  and  _30
REMARK   15  A    between atoms: _33  and  _35
REMARK   16  A    between atoms: _35  and  _36
REMARK   17  A    between atoms: _35  and  _38
REMARK   18  A    between atoms: _38  and  _39
REMARK   19  A    between atoms: _42  and  _44
REMARK   20  A    between atoms: _44  and  _45
REMARK   21  A    between atoms: _44  and  _47
REMARK   22  A    between atoms: _47  and  _48
REMARK   23  A    between atoms: _53  and  _54
REMARK   24  A    between atoms: _56  and  _58
REMARK   25  A    between atoms: _58  and  _59
REMARK   26  A    between atoms: _58  and  _61
REMARK   27  A    between atoms: _61  and  _62
REMARK   28  A    between atoms: _64  and  _66
REMARK   29  A    between atoms: _66  and  _67
REMARK   30  A    between atoms: _66  and  _69
REMARK   31  A    between atoms: _71  and  _73
REMARK   32  A    between atoms: _73  and  _74
REMARK   33  A    between atoms: _73  and  _76
REMARK   34  A    between atoms: _76  and  _77
REMARK   35  A    between atoms: _80  and  _82
REMARK   36  A    between atoms: _82  and  _83
REMARK   37  A    between atoms: _82  and  _85
REMARK   38  A    between atoms: _85  and  _86
REMARK   39  A    between atoms: _90  and  _91
REMARK   40  A    between atoms: _96  and  _98
REMARK   41  A    between atoms: _98  and  _99
REMARK   42  A    between atoms: _98  and  _101
REMARK   43  A    between atoms: _101  and  _102
REMARK   44  A    between atoms: _104  and  _106
REMARK   45  A    between atoms: _106  and  _107
REMARK   46  A    between atoms: _106  and  _109
REMARK   47  A    between atoms: _109  and  _110
REMARK   48  A    between atoms: _110  and  _111
REMARK   49  A    between atoms: _111  and  _112
REMARK   50  A    between atoms: _112  and  _113
REMARK   51  A    between atoms: _117  and  _119
REMARK   52  A    between atoms: _119  and  _120
REMARK   53  A    between atoms: _119  and  _122
REMARK   54  A    between atoms: _122  and  _123
REMARK   55  A    between atoms: _126  and  _128
REMARK   56  A    between atoms: _128  and  _129
REMARK   57  A    between atoms: _128  and  _131
REMARK   58  A    between atoms: _131  and  _132
REMARK   59  A    between atoms: _132  and  _133
REMARK   60  A    between atoms: _133  and  _134
REMARK   61  A    between atoms: _134  and  _135
REMARK   62  A    between atoms: _139  and  _141
REMARK   63  A    between atoms: _141  and  _142
REMARK   64  A    between atoms: _141  and  _144
REMARK   65  A    between atoms: _144  and  _145
REMARK   66  A    between atoms: _145  and  _146
REMARK   67  A    between atoms: _146  and  _147
REMARK   68  A    between atoms: _156  and  _158
REMARK   69  A    between atoms: _158  and  _159
REMARK   70  A    between atoms: _158  and  _161
REMARK   71  A    between atoms: _161  and  _162
REMARK   72  A    between atoms: _162  and  _163
REMARK   73  A    between atoms: _166  and  _168
REMARK   74  A    between atoms: _168  and  _169
REMARK   75  A    between atoms: _168  and  _171
REMARK   76  A    between atoms: _171  and  _172
REMARK   77  A    between atoms: _175  and  _177
REMARK   78  A    between atoms: _177  and  _178
REMARK   79  A    between atoms: _177  and  _180
REMARK   80  A    between atoms: _180  and  _181
REMARK   81  A    between atoms: _184  and  _186
REMARK   82  A    between atoms: _186  and  _187
REMARK   83  A    between atoms: _189  and  _191
REMARK   84  A    between atoms: _191  and  _192
REMARK   85  A    between atoms: _194  and  _196
REMARK   86  A    between atoms: _196  and  _197
REMARK   87  A    between atoms: _199  and  _201
REMARK   88  A    between atoms: _201  and  _202
REMARK   89  A    between atoms: _201  and  _204
REMARK   90  A    between atoms: _207  and  _209
REMARK   91  A    between atoms: _209  and  _210
REMARK   92  A    between atoms: _209  and  _212
REMARK   93  A    between atoms: _212  and  _213
REMARK   94  A    between atoms: _219  and  _221
REMARK   95  A    between atoms: _221  and  _222
REMARK   96  A    between atoms: _221  and  _224
REMARK   97  A    between atoms: _224  and  _225
REMARK   98  A    between atoms: _228  and  _230
REMARK   99  A    between atoms: _230  and  _231
REMARK  100  A    between atoms: _233  and  _235
REMARK  101  A    between atoms: _235  and  _236
REMARK  102  A    between atoms: _238  and  _240
REMARK  103  A    between atoms: _240  and  _241
REMARK  104  A    between atoms: _240  and  _243
REMARK  105  A    between atoms: _243  and  _244
REMARK  106  A    between atoms: _244  and  _245
REMARK  107  A    between atoms: _248  and  _250
REMARK  108  A    between atoms: _250  and  _251
REMARK  109  A    between atoms: _250  and  _253
REMARK  110  A    between atoms: _253  and  _254
REMARK  111  A    between atoms: _257  and  _259
REMARK  112  A    between atoms: _259  and  _260
REMARK  113  A    between atoms: _259  and  _262
REMARK  114  A    between atoms: _262  and  _263
REMARK  115  A    between atoms: _269  and  _271
REMARK  116  A    between atoms: _271  and  _272
REMARK  117  A    between atoms: _271  and  _274
REMARK  118  A    between atoms: _274  and  _275
REMARK  119  A    between atoms: _278  and  _280
REMARK  120  A    between atoms: _280  and  _281
REMARK  121  A    between atoms: _280  and  _283
REMARK  122  A    between atoms: _285  and  _287
REMARK  123  A    between atoms: _287  and  _288
REMARK  124  A    between atoms: _287  and  _290
REMARK  125  A    between atoms: _290  and  _291
REMARK  126  A    between atoms: _291  and  _292
REMARK  127  A    between atoms: _295  and  _297
REMARK  128  A    between atoms: _297  and  _298
REMARK  129  A    between atoms: _297  and  _300
REMARK  130  A    between atoms: _300  and  _301
REMARK  131  A    between atoms: _301  and  _302
REMARK  132  A    between atoms: _302  and  _303
REMARK  133  A    between atoms: _312  and  _314
REMARK  134  A    between atoms: _314  and  _315
REMARK  135  A    between atoms: _318  and  _320
REMARK  136  A    between atoms: _320  and  _321
REMARK  137  A    between atoms: _320  and  _323
REMARK  138  A    between atoms: _323  and  _324
REMARK  139  A    between atoms: _324  and  _325
REMARK  140  A    between atoms: _325  and  _326
REMARK  141  A    between atoms: _326  and  _327
REMARK  142  A    between atoms: _331  and  _333
REMARK  143  A    between atoms: _333  and  _334
REMARK  144  A    between atoms: _333  and  _336
REMARK  145  A    between atoms: _336  and  _337
REMARK  146  A    between atoms: _337  and  _338
REMARK  147  A    between atoms: _338  and  _339
REMARK  148  A    between atoms: _348  and  _350
REMARK  149  A    between atoms: _350  and  _351
REMARK  150  A    between atoms: _350  and  _353
REMARK  151  A    between atoms: _353  and  _354
REMARK  152  A    between atoms: _357  and  _359
REMARK  153  A    between atoms: _359  and  _360
REMARK  154  A    between atoms: _359  and  _362
REMARK  155  A    between atoms: _362  and  _363
REMARK  156  A    between atoms: _366  and  _368
REMARK  157  A    between atoms: _368  and  _369
REMARK  158  A    between atoms: _368  and  _371
REMARK  159  A    between atoms: _371  and  _372
REMARK  160  A    between atoms: _374  and  _376
REMARK  161  A    between atoms: _376  and  _377
REMARK  162  A    between atoms: _376  and  _379
REMARK  163  A    between atoms: _379  and  _380
REMARK  164  A    between atoms: _382  and  _384
REMARK  165  A    between atoms: _384  and  _385
REMARK  166  A    between atoms: _384  and  _387
REMARK  167  A    between atoms: _387  and  _388
REMARK  168  A    between atoms: _394  and  _396
REMARK  169  A    between atoms: _396  and  _397
REMARK  170  A    between atoms: _396  and  _399
REMARK  171  A    between atoms: _402  and  _404
REMARK  172  A    between atoms: _404  and  _405
REMARK  173  A    between atoms: _407  and  _409
REMARK  174  A    between atoms: _409  and  _410
REMARK  175  A    between atoms: _412  and  _414
REMARK  176  A    between atoms: _414  and  _415
REMARK  177  A    between atoms: _414  and  _417
REMARK  178  A    between atoms: _417  and  _418
REMARK  179  A    between atoms: _420  and  _422
REMARK  180  A    between atoms: _422  and  _423
REMARK  181  A    between atoms: _422  and  _425
REMARK  182  A    between atoms: _425  and  _426
REMARK  183  A    between atoms: _429  and  _431
REMARK  184  A    between atoms: _431  and  _432
REMARK  185  A    between atoms: _431  and  _434
REMARK  186  A    between atoms: _434  and  _435
REMARK  187  A    between atoms: _435  and  _436
REMARK  188  A    between atoms: _436  and  _437
REMARK  189  A    between atoms: _446  and  _448
REMARK  190  A    between atoms: _448  and  _449
REMARK  191  A    between atoms: _448  and  _451
REMARK  192  A    between atoms: _451  and  _452
REMARK  193  A    between atoms: _456  and  _457
REMARK  194  A    between atoms: _462  and  _464
REMARK  195  A    between atoms: _464  and  _465
REMARK  196  A    between atoms: _464  and  _467
REMARK  197  A    between atoms: _467  and  _468
REMARK  198  A    between atoms: _471  and  _473
REMARK  199  A    between atoms: _473  and  _474
REMARK  200  A    between atoms: _473  and  _476
REMARK  201  A    between atoms: _476  and  _477
REMARK  202  A    between atoms: _483  and  _484
REMARK  203  A    between atoms: _489  and  _491
REMARK  204  A    between atoms: _491  and  _492
REMARK  205  A    between atoms: _491  and  _494
REMARK  206  A    between atoms: _494  and  _495
REMARK  207  A    between atoms: _498  and  _500
REMARK  208  A    between atoms: _500  and  _501
REMARK  209  A    between atoms: _500  and  _503
REMARK  210  A    between atoms: _503  and  _504
REMARK  211  A    between atoms: _504  and  _505
REMARK  212  A    between atoms: _508  and  _510
REMARK  213  A    between atoms: _510  and  _511
REMARK  214  A    between atoms: _514  and  _516
REMARK  215  A    between atoms: _516  and  _517
REMARK  216  A    between atoms: _516  and  _519
REMARK                            x       y       z     vdW  Elec       q    Type
REMARK                         _______ _______ _______ _____ _____    ______ ____
ROOT
ATOM      1  C   GLY A   4      17.205  32.346  21.374  0.00  0.00    +0.243 C 
ATOM      2  O   GLY A   4      16.968  33.257  22.150  0.00  0.00    -0.273 OA
ATOM      3  N   GLY A   5      17.055  31.076  21.712  0.00  0.00    -0.295 N 
ATOM      4  H   GLY A   5      17.259  30.327  21.020  0.00  0.00    +0.150 HD
ENDROOT
BRANCH   3   5
ATOM      5  CA  GLY A   5      16.607  30.726  23.045  0.00  0.00    +0.176 C 
BRANCH   5   6
ATOM      6  C   GLY A   5      17.103  29.400  23.594  0.00  0.00    +0.243 C 
ATOM      7  O   GLY A   5      16.614  28.943  24.627  0.00  0.00    -0.273 OA
ATOM      8  N   VAL A   6      18.083  28.789  22.933  0.00  0.00    -0.297 N 
ATOM      9  H   VAL A   6      18.462  29.234  22.073  0.00  0.00    +0.150 HD
BRANCH   8  10
ATOM     10  CA  VAL A   6      18.646  27.510  23.375  0.00  0.00    +0.149 C 
BRANCH  10  11
ATOM     11  C   VAL A   6      20.181  27.572  23.283  0.00  0.00    +0.241 C 
ATOM     12  N   PHE A   7      20.850  26.988  24.273  0.00  0.00    -0.298 N 
ATOM     13  H   PHE A   7      20.314  26.538  25.042  0.00  0.00    +0.150 HD
ATOM     14  O   VAL A   6      20.736  28.155  22.339  0.00  0.00    -0.273 OA
BRANCH  12  15
ATOM     15  CA  PHE A   7      22.308  26.954  24.321  0.00  0.00    +0.141 C 
BRANCH  15  16
ATOM     16  C   PHE A   7      22.793  25.507  24.367  0.00  0.00    +0.227 C 
ATOM     17  O   PHE A   7      22.608  24.815  25.362  0.00  0.00    -0.286 OA
ENDBRANCH  15  16
BRANCH  15  18
ATOM     18  CB  PHE A   7      22.813  27.718  25.553  0.00  0.00    +0.054 C 
BRANCH  18  19
ATOM     19  CG  PHE A   7      24.316  27.699  25.719  0.00  0.00    -0.020 A 
ATOM     20  CD2 PHE A   7      24.884  27.579  26.988  0.00  0.00    -0.004 A 
ATOM     21  CE2 PHE A   7      26.268  27.549  27.152  0.00  0.00    -0.000 A 
ATOM     22  CZ  PHE A   7      27.098  27.643  26.042  0.00  0.00    -0.000 A 
ATOM     23  CE1 PHE A   7      26.544  27.766  24.766  0.00  0.00    -0.000 A 
ATOM     24  CD1 PHE A   7      25.162  27.795  24.612  0.00  0.00    -0.004 A 
ENDBRANCH  18  19
ENDBRANCH  15  18
ENDBRANCH  12  15
ENDBRANCH  10  11
BRANCH  10  25
ATOM     25  CB  VAL A   6      18.149  26.326  22.500  0.00  0.00    +0.027 C 
ATOM     26  CG2 VAL A   6      18.651  25.001  23.051  0.00  0.00    +0.002 C 
ATOM     27  CG1 VAL A   6      16.646  26.327  22.421  0.00  0.00    +0.002 C 
ENDBRANCH  10  25
ENDBRANCH   8  10
ENDBRANCH   5   6
ENDBRANCH   3   5
BRANCH   1  28
ATOM     28  CA  GLY A   4      17.671  32.653  19.964  0.00  0.00    +0.176 C 
BRANCH  28  31
ATOM     29  C   GLY A   3      19.923  31.736  19.853  0.00  0.00    +0.243 C 
ATOM     30  O   GLY A   3      20.319  32.446  20.781  0.00  0.00    -0.273 OA
ATOM     31  N   GLY A   4      18.669  31.764  19.395  0.00  0.00    -0.295 N 
ATOM     32  H   GLY A   4      18.400  31.134  18.612  0.00  0.00    +0.150 HD
BRANCH  29  33
ATOM     33  CA  GLY A   3      20.866  30.768  19.160  0.00  0.00    +0.176 C 
BRANCH  33  35
ATOM     34  C   LEU A   2      23.100  30.594  20.090  0.00  0.00    +0.241 C 
ATOM     35  N   GLY A   3      21.848  30.140  20.023  0.00  0.00    -0.295 N 
ATOM     36  H   GLY A   3      21.571  29.321  20.600  0.00  0.00    +0.150 HD
ATOM     37  O   LEU A   2      23.511  31.560  19.435  0.00  0.00    -0.273 OA
BRANCH  34  38
ATOM     38  CA  LEU A   2      24.037  29.830  21.024  0.00  0.00    +0.149 C 
BRANCH  38  41
ATOM     39  C   ASP A   1      24.873  27.595  20.552  0.00  0.00    +0.239 C 
ATOM     40  O   ASP A   1      24.318  27.126  21.546  0.00  0.00    -0.274 OA
ATOM     41  N   LEU A   2      24.822  28.884  20.240  0.00  0.00    -0.297 N 
ATOM     42  H   LEU A   2      25.355  29.228  19.416  0.00  0.00    +0.150 HD
BRANCH  39  43
ATOM     43  CA  ASP A   1      25.725  26.709  19.644  0.00  0.00    +0.156 C 
BRANCH  43  44
ATOM     44  N   ASP A   1      26.930  26.214  20.311  0.00  0.00    -0.238 NA
ATOM     45  H   ASP A   1      26.826  25.589  21.136  0.00  0.00    +0.142 HD
ENDBRANCH  43  44
BRANCH  43  46
ATOM     46  CB  ASP A   1      24.907  25.508  19.150  0.00  0.00    +0.140 C 
BRANCH  46  47
ATOM     47  CG  ASP A   1      23.825  25.892  18.136  0.00  0.00    +0.367 C 
ATOM     48  OD2 ASP A   1      23.680  27.086  17.813  0.00  0.00    -0.246 OA
ATOM     49  OD1 ASP A   1      23.126  24.982  17.643  0.00  0.00    -0.246 OA
ENDBRANCH  46  47
ENDBRANCH  43  46
ENDBRANCH  39  43
ENDBRANCH  38  41
BRANCH  38  50
ATOM     50  CB  LEU A   2      24.937  30.799  21.786  0.00  0.00    +0.029 C 
BRANCH  50  51
ATOM     51  CG  LEU A   2      24.230  31.694  22.804  0.00  0.00    +0.002 C 
ATOM     52  CD2 LEU A   2      23.488  30.864  23.832  0.00  0.00    +0.000 C 
ATOM     53  CD1 LEU A   2      25.256  32.579  23.488  0.00  0.00    +0.000 C 
ENDBRANCH  50  51
ENDBRANCH  38  50
ENDBRANCH  34  38
ENDBRANCH  33  35
ENDBRANCH  29  33
ENDBRANCH  28  31
ENDBRANCH   1  28
TORSDOF 21
REMARK  Name = ../refined-set-2016/1atr/1atr_pocket.pdb
REMARK  216 active torsions:
REMARK  status: ('A' for Active; 'I' for Inactive)
REMARK    1  A    between atoms: _1  and  _3
REMARK    2  A    between atoms: _3  and  _4
REMARK    3  A    between atoms: _3  and  _6
REMARK    4  A    between atoms: _6  and  _7
REMARK    5  A    between atoms: _10  and  _12
REMARK    6  A    between atoms: _12  and  _13
REMARK    7  A    between atoms: _12  and  _15
REMARK    8  A    between atoms: _15  and  _16
REMARK    9  A    between atoms: _19  and  _21
REMARK   10  A    between atoms: _21  and  _22
REMARK   11  A    between atoms: _24  and  _26
REMARK   12  A    between atoms: _26  and  _27
REMARK   13  A    between atoms: _26  and  _29
REMARK   14  A    between atoms: _29  and  _30
REMARK   15  A    between atoms: _33  and  _35
REMARK   16  A    between atoms: _35  and  _36
REMARK   17  A    between atoms: _35  and  _38
REMARK   18  A    between atoms: _38  and  _39
REMARK   19  A    between atoms: _42  and  _44
REMARK   20  A    between atoms: _44  and  _45
REMARK   21  A    between atoms: _44  and  _47
REMARK   22  A    between atoms: _47  and  _48
REMARK   23  A    between atoms: _53  and  _54
REMARK   24  A    between atoms: _56  and  _58
REMARK   25  A    between atoms: _58  and  _59
REMARK   26  A    between atoms: _58  and  _61
REMARK   27  A    between atoms: _61  and  _62
REMARK   28  A    between atoms: _64  and  _66
REMARK   29  A    between atoms: _66  and  _67
REMARK   30  A    between atoms: _66  and  _69
REMARK   31  A    between atoms: _71  and  _73
REMARK   32  A    between atoms: _73  and  _74
REMARK   33  A    between atoms: _73  and  _76
REMARK   34  A    between atoms: _76  and  _77
REMARK   35  A    between atoms: _80  and  _82
REMARK   36  A    between atoms: _82  and  _83
REMARK   37  A    between atoms: _82  and  _85
REMARK   38  A    between atoms: _85  and  _86
REMARK   39  A    between atoms: _90  and  _91
REMARK   40  A    between atoms: _96  and  _98
REMARK   41  A    between atoms: _98  and  _99
REMARK   42  A    between atoms: _98  and  _101
REMARK   43  A    between atoms: _101  and  _102
REMARK   44  A    between atoms: _104  and  _106
REMARK   45  A    between atoms: _106  and  _107
REMARK   46  A    between atoms: _106  and  _109
REMARK   47  A    between atoms: _109  and  _110
REMARK   48  A    between atoms: _110  and  _111
REMARK   49  A    between atoms: _111  and  _112
REMARK   50  A    between atoms: _112  and  _113
REMARK   51  A    between atoms: _117  and  _119
REMARK   52  A    between atoms: _119  and  _120
REMARK   53  A    between atoms: _119  and  _122
REMARK   54  A    between atoms: _122  and  _123
REMARK   55  A    between atoms: _126  and  _128
REMARK   56  A    between atoms: _128  and  _129
REMARK   57  A    between atoms: _128  and  _131
REMARK   58  A    between atoms: _131  and  _132
REMARK   59  A    between atoms: _132  and  _133
REMARK   60  A    between atoms: _133  and  _134
REMARK   61  A    between atoms: _134  and  _135
REMARK   62  A    between atoms: _139  and  _141
REMARK   63  A    between atoms: _141  and  _142
REMARK   64  A    between atoms: _141  and  _144
REMARK   65  A    between atoms: _144  and  _145
REMARK   66  A    between atoms: _145  and  _146
REMARK   67  A    between atoms: _146  and  _147
REMARK   68  A    between atoms: _156  and  _158
REMARK   69  A    between atoms: _158  and  _159
REMARK   70  A    between atoms: _158  and  _161
REMARK   71  A    between atoms: _161  and  _162
REMARK   72  A    between atoms: _162  and  _163
REMARK   73  A    between atoms: _166  and  _168
REMARK   74  A    between atoms: _168  and  _169
REMARK   75  A    between atoms: _168  and  _171
REMARK   76  A    between atoms: _171  and  _172
REMARK   77  A    between atoms: _175  and  _177
REMARK   78  A    between atoms: _177  and  _178
REMARK   79  A    between atoms: _177  and  _180
REMARK   80  A    between atoms: _180  and  _181
REMARK   81  A    between atoms: _184  and  _186
REMARK   82  A    between atoms: _186  and  _187
REMARK   83  A    between atoms: _189  and  _191
REMARK   84  A    between atoms: _191  and  _192
REMARK   85  A    between atoms: _194  and  _196
REMARK   86  A    between atoms: _196  and  _197
REMARK   87  A    between atoms: _199  and  _201
REMARK   88  A    between atoms: _201  and  _202
REMARK   89  A    between atoms: _201  and  _204
REMARK   90  A    between atoms: _207  and  _209
REMARK   91  A    between atoms: _209  and  _210
REMARK   92  A    between atoms: _209  and  _212
REMARK   93  A    between atoms: _212  and  _213
REMARK   94  A    between atoms: _219  and  _221
REMARK   95  A    between atoms: _221  and  _222
REMARK   96  A    between atoms: _221  and  _224
REMARK   97  A    between atoms: _224  and  _225
REMARK   98  A    between atoms: _228  and  _230
REMARK   99  A    between atoms: _230  and  _231
REMARK  100  A    between atoms: _233  and  _235
REMARK  101  A    between atoms: _235  and  _236
REMARK  102  A    between atoms: _238  and  _240
REMARK  103  A    between atoms: _240  and  _241
REMARK  104  A    between atoms: _240  and  _243
REMARK  105  A    between atoms: _243  and  _244
REMARK  106  A    between atoms: _244  and  _245
REMARK  107  A    between atoms: _248  and  _250
REMARK  108  A    between atoms: _250  and  _251
REMARK  109  A    between atoms: _250  and  _253
REMARK  110  A    between atoms: _253  and  _254
REMARK  111  A    between atoms: _257  and  _259
REMARK  112  A    between atoms: _259  and  _260
REMARK  113  A    between atoms: _259  and  _262
REMARK  114  A    between atoms: _262  and  _263
REMARK  115  A    between atoms: _269  and  _271
REMARK  116  A    between atoms: _271  and  _272
REMARK  117  A    between atoms: _271  and  _274
REMARK  118  A    between atoms: _274  and  _275
REMARK  119  A    between atoms: _278  and  _280
REMARK  120  A    between atoms: _280  and  _281
REMARK  121  A    between atoms: _280  and  _283
REMARK  122  A    between atoms: _285  and  _287
REMARK  123  A    between atoms: _287  and  _288
REMARK  124  A    between atoms: _287  and  _290
REMARK  125  A    between atoms: _290  and  _291
REMARK  126  A    between atoms: _291  and  _292
REMARK  127  A    between atoms: _295  and  _297
REMARK  128  A    between atoms: _297  and  _298
REMARK  129  A    between atoms: _297  and  _300
REMARK  130  A    between atoms: _300  and  _301
REMARK  131  A    between atoms: _301  and  _302
REMARK  132  A    between atoms: _302  and  _303
REMARK  133  A    between atoms: _312  and  _314
REMARK  134  A    between atoms: _314  and  _315
REMARK  135  A    between atoms: _318  and  _320
REMARK  136  A    between atoms: _320  and  _321
REMARK  137  A    between atoms: _320  and  _323
REMARK  138  A    between atoms: _323  and  _324
REMARK  139  A    between atoms: _324  and  _325
REMARK  140  A    between atoms: _325  and  _326
REMARK  141  A    between atoms: _326  and  _327
REMARK  142  A    between atoms: _331  and  _333
REMARK  143  A    between atoms: _333  and  _334
REMARK  144  A    between atoms: _333  and  _336
REMARK  145  A    between atoms: _336  and  _337
REMARK  146  A    between atoms: _337  and  _338
REMARK  147  A    between atoms: _338  and  _339
REMARK  148  A    between atoms: _348  and  _350
REMARK  149  A    between atoms: _350  and  _351
REMARK  150  A    between atoms: _350  and  _353
REMARK  151  A    between atoms: _353  and  _354
REMARK  152  A    between atoms: _357  and  _359
REMARK  153  A    between atoms: _359  and  _360
REMARK  154  A    between atoms: _359  and  _362
REMARK  155  A    between atoms: _362  and  _363
REMARK  156  A    between atoms: _366  and  _368
REMARK  157  A    between atoms: _368  and  _369
REMARK  158  A    between atoms: _368  and  _371
REMARK  159  A    between atoms: _371  and  _372
REMARK  160  A    between atoms: _374  and  _376
REMARK  161  A    between atoms: _376  and  _377
REMARK  162  A    between atoms: _376  and  _379
REMARK  163  A    between atoms: _379  and  _380
REMARK  164  A    between atoms: _382  and  _384
REMARK  165  A    between atoms: _384  and  _385
REMARK  166  A    between atoms: _384  and  _387
REMARK  167  A    between atoms: _387  and  _388
REMARK  168  A    between atoms: _394  and  _396
REMARK  169  A    between atoms: _396  and  _397
REMARK  170  A    between atoms: _396  and  _399
REMARK  171  A    between atoms: _402  and  _404
REMARK  172  A    between atoms: _404  and  _405
REMARK  173  A    between atoms: _407  and  _409
REMARK  174  A    between atoms: _409  and  _410
REMARK  175  A    between atoms: _412  and  _414
REMARK  176  A    between atoms: _414  and  _415
REMARK  177  A    between atoms: _414  and  _417
REMARK  178  A    between atoms: _417  and  _418
REMARK  179  A    between atoms: _420  and  _422
REMARK  180  A    between atoms: _422  and  _423
REMARK  181  A    between atoms: _422  and  _425
REMARK  182  A    between atoms: _425  and  _426
REMARK  183  A    between atoms: _429  and  _431
REMARK  184  A    between atoms: _431  and  _432
REMARK  185  A    between atoms: _431  and  _434
REMARK  186  A    between atoms: _434  and  _435
REMARK  187  A    between atoms: _435  and  _436
REMARK  188  A    between atoms: _436  and  _437
REMARK  189  A    between atoms: _446  and  _448
REMARK  190  A    between atoms: _448  and  _449
REMARK  191  A    between atoms: _448  and  _451
REMARK  192  A    between atoms: _451  and  _452
REMARK  193  A    between atoms: _456  and  _457
REMARK  194  A    between atoms: _462  and  _464
REMARK  195  A    between atoms: _464  and  _465
REMARK  196  A    between atoms: _464  and  _467
REMARK  197  A    between atoms: _467  and  _468
REMARK  198  A    between atoms: _471  and  _473
REMARK  199  A    between atoms: _473  and  _474
REMARK  200  A    between atoms: _473  and  _476
REMARK  201  A    between atoms: _476  and  _477
REMARK  202  A    between atoms: _483  and  _484
REMARK  203  A    between atoms: _489  and  _491
REMARK  204  A    between atoms: _491  and  _492
REMARK  205  A    between atoms: _491  and  _494
REMARK  206  A    between atoms: _494  and  _495
REMARK  207  A    between atoms: _498  and  _500
REMARK  208  A    between atoms: _500  and  _501
REMARK  209  A    between atoms: _500  and  _503
REMARK  210  A    between atoms: _503  and  _504
REMARK  211  A    between atoms: _504  and  _505
REMARK  212  A    between atoms: _508  and  _510
REMARK  213  A    between atoms: _510  and  _511
REMARK  214  A    between atoms: _514  and  _516
REMARK  215  A    between atoms: _516  and  _517
REMARK  216  A    between atoms: _516  and  _519
REMARK                            x       y       z     vdW  Elec       q    Type
REMARK                         _______ _______ _______ _____ _____    ______ ____
ROOT
ATOM      1  C   GLU A   4      16.384  37.048  25.091  0.00  0.00    +0.241 C 
ATOM      2  N   ASP A   5      17.213  36.309  25.824  0.00  0.00    -0.297 N 
ATOM      3  H   ASP A   5      17.635  35.457  25.403  0.00  0.00    +0.150 HD
ATOM      4  O   GLU A   4      15.857  38.083  25.514  0.00  0.00    -0.273 OA
ENDROOT
BRANCH   1   5
ATOM      5  CA  GLU A   4      16.147  36.579  23.660  0.00  0.00    +0.149 C 
BRANCH   5   8
ATOM      6  C   GLY A   3      18.492  36.591  22.963  0.00  0.00    +0.243 C 
ATOM      7  O   GLY A   3      18.625  37.777  23.264  0.00  0.00    -0.273 OA
ATOM      8  N   GLU A   4      17.342  35.936  23.100  0.00  0.00    -0.297 N 
ATOM      9  H   GLU A   4      17.288  34.941  22.802  0.00  0.00    +0.150 HD
BRANCH   6  10
ATOM     10  CA  GLY A   3      19.662  35.809  22.391  0.00  0.00    +0.176 C 
BRANCH  10  13
ATOM     11  C   GLY A   2      19.666  33.961  23.963  0.00  0.00    +0.243 C 
ATOM     12  O   GLY A   2      19.659  34.717  24.927  0.00  0.00    -0.273 OA
ATOM     13  N   GLY A   3      19.665  34.390  22.706  0.00  0.00    -0.295 N 
ATOM     14  H   GLY A   3      19.666  33.696  21.931  0.00  0.00    +0.150 HD
BRANCH  11  15
ATOM     15  CA  GLY A   2      19.672  32.464  24.171  0.00  0.00    +0.176 C 
BRANCH  15  17
ATOM     16  C   LEU A   1      19.738  30.865  25.979  0.00  0.00    +0.238 C 
ATOM     17  N   GLY A   2      19.534  32.117  25.570  0.00  0.00    -0.296 N 
ATOM     18  H   GLY A   2      19.274  32.850  26.261  0.00  0.00    +0.150 HD
ATOM     19  O   LEU A   1      20.022  29.941  25.214  0.00  0.00    -0.274 OA
BRANCH  16  20
ATOM     20  CA  LEU A   1      19.567  30.588  27.466  0.00  0.00    +0.145 C 
BRANCH  20  21
ATOM     21  N   LEU A   1      18.564  29.539  27.554  0.00  0.00    -0.238 NA
ATOM     22  H   LEU A   1      18.636  28.723  26.913  0.00  0.00    +0.142 HD
ENDBRANCH  20  21
BRANCH  20  23
ATOM     23  CB  LEU A   1      20.888  30.130  28.097  0.00  0.00    +0.026 C 
BRANCH  23  24
ATOM     24  CG  LEU A   1      21.936  31.219  28.360  0.00  0.00    +0.002 C 
ATOM     25  CD2 LEU A   1      21.293  32.462  28.969  0.00  0.00    +0.000 C 
ATOM     26  CD1 LEU A   1      22.662  31.591  27.083  0.00  0.00    +0.000 C 
ENDBRANCH  23  24
ENDBRANCH  20  23
ENDBRANCH  16  20
ENDBRANCH  15  17
ENDBRANCH  11  15
ENDBRANCH  10  13
ENDBRANCH   6  10
ENDBRANCH   5   8
BRANCH   5  27
ATOM     27  CB  GLU A   4      14.962  35.621  23.610  0.00  0.00    +0.041 C 
BRANCH  27  28
ATOM     28  CG  GLU A   4      14.605  35.219  22.194  0.00  0.00    +0.116 C 
BRANCH  28  29
ATOM     29  CD  GLU A   4      13.484  34.204  22.123  0.00  0.00    +0.365 C 
ATOM     30  OE2 GLU A   4      13.576  33.129  22.775  0.00  0.00    -0.246 OA
ATOM     31  OE1 GLU A   4      12.513  34.482  21.389  0.00  0.00    -0.246 OA
ENDBRANCH  28  29
ENDBRANCH  27  28
ENDBRANCH   5  27
ENDBRANCH   1   5
BRANCH   2  32
ATOM     32  CA  ASP A   5      17.548  36.660  27.204  0.00  0.00    +0.160 C 
BRANCH  32  33
ATOM     33  C   ASP A   5      18.364  37.948  27.223  0.00  0.00    +0.241 C 
ATOM     34  O   ASP A   5      18.213  38.772  28.129  0.00  0.00    -0.273 OA
ATOM     35  N   PHE A   6      19.211  38.140  26.212  0.00  0.00    -0.297 N 
ATOM     36  H   PHE A   6      19.277  37.426  25.458  0.00  0.00    +0.150 HD
BRANCH  35  37
ATOM     37  CA  PHE A   6      20.050  39.338  26.144  0.00  0.00    +0.153 C 
BRANCH  37  38
ATOM     38  C   PHE A   6      19.174  40.536  25.830  0.00  0.00    +0.241 C 
ATOM     39  O   PHE A   6      19.384  41.620  26.374  0.00  0.00    -0.273 OA
ATOM     40  N   ASP A   7      18.190  40.326  24.957  0.00  0.00    -0.298 N 
ATOM     41  H   ASP A   7      18.093  39.383  24.530  0.00  0.00    +0.150 HD
BRANCH  40  42
ATOM     42  CA  ASP A   7      17.241  41.372  24.577  0.00  0.00    +0.148 C 
BRANCH  42  43
ATOM     43  C   ASP A   7      16.472  41.857  25.795  0.00  0.00    +0.227 C 
ATOM     44  O   ASP A   7      16.322  43.052  25.998  0.00  0.00    -0.286 OA
ENDBRANCH  42  43
BRANCH  42  45
ATOM     45  CB  ASP A   7      16.243  40.835  23.558  0.00  0.00    +0.142 C 
BRANCH  45  46
ATOM     46  CG  ASP A   7      16.885  40.484  22.247  0.00  0.00    +0.367 C 
ATOM     47  OD2 ASP A   7      17.844  41.163  21.856  0.00  0.00    -0.246 OA
ATOM     48  OD1 ASP A   7      16.424  39.535  21.594  0.00  0.00    -0.246 OA
ENDBRANCH  45  46
ENDBRANCH  42  45
ENDBRANCH  40  42
ENDBRANCH  37  38
BRANCH  37  49
ATOM     49  CB  PHE A   6      21.174  39.197  25.098  0.00  0.00    +0.055 C 
BRANCH  49  50
ATOM     50  CG  PHE A   6      22.046  37.978  25.295  0.00  0.00    -0.020 A 
ATOM     51  CD2 PHE A   6      22.222  37.425  26.559  0.00  0.00    -0.004 A 
ATOM     52  CE2 PHE A   6      22.952  36.245  26.734  0.00  0.00    -0.000 A 
ATOM     53  CZ  PHE A   6      23.517  35.610  25.630  0.00  0.00    -0.000 A 
ATOM     54  CE1 PHE A   6      23.354  36.162  24.364  0.00  0.00    -0.000 A 
ATOM     55  CD1 PHE A   6      22.624  37.341  24.205  0.00  0.00    -0.004 A 
ENDBRANCH  49  50
ENDBRANCH  37  49
ENDBRANCH  35  37
ENDBRANCH  32  33
BRANCH  32  56
ATOM     56  CB  ASP A   5      18.353  35.539  27.864  0.00  0.00    +0.143 C 
BRANCH  56  57
ATOM     57  CG  ASP A   5      17.605  34.214  27.905  0.00  0.00    +0.367 C 
ATOM     58  OD2 ASP A   5      17.091  33.859  28.979  0.00  0.00    -0.246 OA
ATOM     59  OD1 ASP A   5      17.562  33.502  26.881  0.00  0.00    -0.246 OA
ENDBRANCH  56  57
ENDBRANCH  32  56
ENDBRANCH   2  32
TORSDOF 25
REMARK  Name = ../refined-set-2016/1atr/1atr_pocket.pdb
REMARK  216 active torsions:
REMARK  status: ('A' for Active; 'I' for Inactive)
REMARK    1  A    between atoms: _1  and  _3
REMARK    2  A    between atoms: _3  and  _4
REMARK    3  A    between atoms: _3  and  _6
REMARK    4  A    between atoms: _6  and  _7
REMARK    5  A    between atoms: _10  and  _12
REMARK    6  A    between atoms: _12  and  _13
REMARK    7  A    between atoms: _12  and  _15
REMARK    8  A    between atoms: _15  and  _16
REMARK    9  A    between atoms: _19  and  _21
REMARK   10  A    between atoms: _21  and  _22
REMARK   11  A    between atoms: _24  and  _26
REMARK   12  A    between atoms: _26  and  _27
REMARK   13  A    between atoms: _26  and  _29
REMARK   14  A    between atoms: _29  and  _30
REMARK   15  A    between atoms: _33  and  _35
REMARK   16  A    between atoms: _35  and  _36
REMARK   17  A    between atoms: _35  and  _38
REMARK   18  A    between atoms: _38  and  _39
REMARK   19  A    between atoms: _42  and  _44
REMARK   20  A    between atoms: _44  and  _45
REMARK   21  A    between atoms: _44  and  _47
REMARK   22  A    between atoms: _47  and  _48
REMARK   23  A    between atoms: _53  and  _54
REMARK   24  A    between atoms: _56  and  _58
REMARK   25  A    between atoms: _58  and  _59
REMARK   26  A    between atoms: _58  and  _61
REMARK   27  A    between atoms: _61  and  _62
REMARK   28  A    between atoms: _64  and  _66
REMARK   29  A    between atoms: _66  and  _67
REMARK   30  A    between atoms: _66  and  _69
REMARK   31  A    between atoms: _71  and  _73
REMARK   32  A    between atoms: _73  and  _74
REMARK   33  A    between atoms: _73  and  _76
REMARK   34  A    between atoms: _76  and  _77
REMARK   35  A    between atoms: _80  and  _82
REMARK   36  A    between atoms: _82  and  _83
REMARK   37  A    between atoms: _82  and  _85
REMARK   38  A    between atoms: _85  and  _86
REMARK   39  A    between atoms: _90  and  _91
REMARK   40  A    between atoms: _96  and  _98
REMARK   41  A    between atoms: _98  and  _99
REMARK   42  A    between atoms: _98  and  _101
REMARK   43  A    between atoms: _101  and  _102
REMARK   44  A    between atoms: _104  and  _106
REMARK   45  A    between atoms: _106  and  _107
REMARK   46  A    between atoms: _106  and  _109
REMARK   47  A    between atoms: _109  and  _110
REMARK   48  A    between atoms: _110  and  _111
REMARK   49  A    between atoms: _111  and  _112
REMARK   50  A    between atoms: _112  and  _113
REMARK   51  A    between atoms: _117  and  _119
REMARK   52  A    between atoms: _119  and  _120
REMARK   53  A    between atoms: _119  and  _122
REMARK   54  A    between atoms: _122  and  _123
REMARK   55  A    between atoms: _126  and  _128
REMARK   56  A    between atoms: _128  and  _129
REMARK   57  A    between atoms: _128  and  _131
REMARK   58  A    between atoms: _131  and  _132
REMARK   59  A    between atoms: _132  and  _133
REMARK   60  A    between atoms: _133  and  _134
REMARK   61  A    between atoms: _134  and  _135
REMARK   62  A    between atoms: _139  and  _141
REMARK   63  A    between atoms: _141  and  _142
REMARK   64  A    between atoms: _141  and  _144
REMARK   65  A    between atoms: _144  and  _145
REMARK   66  A    between atoms: _145  and  _146
REMARK   67  A    between atoms: _146  and  _147
REMARK   68  A    between atoms: _156  and  _158
REMARK   69  A    between atoms: _158  and  _159
REMARK   70  A    between atoms: _158  and  _161
REMARK   71  A    between atoms: _161  and  _162
REMARK   72  A    between atoms: _162  and  _163
REMARK   73  A    between atoms: _166  and  _168
REMARK   74  A    between atoms: _168  and  _169
REMARK   75  A    between atoms: _168  and  _171
REMARK   76  A    between atoms: _171  and  _172
REMARK   77  A    between atoms: _175  and  _177
REMARK   78  A    between atoms: _177  and  _178
REMARK   79  A    between atoms: _177  and  _180
REMARK   80  A    between atoms: _180  and  _181
REMARK   81  A    between atoms: _184  and  _186
REMARK   82  A    between atoms: _186  and  _187
REMARK   83  A    between atoms: _189  and  _191
REMARK   84  A    between atoms: _191  and  _192
REMARK   85  A    between atoms: _194  and  _196
REMARK   86  A    between atoms: _196  and  _197
REMARK   87  A    between atoms: _199  and  _201
REMARK   88  A    between atoms: _201  and  _202
REMARK   89  A    between atoms: _201  and  _204
REMARK   90  A    between atoms: _207  and  _209
REMARK   91  A    between atoms: _209  and  _210
REMARK   92  A    between atoms: _209  and  _212
REMARK   93  A    between atoms: _212  and  _213
REMARK   94  A    between atoms: _219  and  _221
REMARK   95  A    between atoms: _221  and  _222
REMARK   96  A    between atoms: _221  and  _224
REMARK   97  A    between atoms: _224  and  _225
REMARK   98  A    between atoms: _228  and  _230
REMARK   99  A    between atoms: _230  and  _231
REMARK  100  A    between atoms: _233  and  _235
REMARK  101  A    between atoms: _235  and  _236
REMARK  102  A    between atoms: _238  and  _240
REMARK  103  A    between atoms: _240  and  _241
REMARK  104  A    between atoms: _240  and  _243
REMARK  105  A    between atoms: _243  and  _244
REMARK  106  A    between atoms: _244  and  _245
REMARK  107  A    between atoms: _248  and  _250
REMARK  108  A    between atoms: _250  and  _251
REMARK  109  A    between atoms: _250  and  _253
REMARK  110  A    between atoms: _253  and  _254
REMARK  111  A    between atoms: _257  and  _259
REMARK  112  A    between atoms: _259  and  _260
REMARK  113  A    between atoms: _259  and  _262
REMARK  114  A    between atoms: _262  and  _263
REMARK  115  A    between atoms: _269  and  _271
REMARK  116  A    between atoms: _271  and  _272
REMARK  117  A    between atoms: _271  and  _274
REMARK  118  A    between atoms: _274  and  _275
REMARK  119  A    between atoms: _278  and  _280
REMARK  120  A    between atoms: _280  and  _281
REMARK  121  A    between atoms: _280  and  _283
REMARK  122  A    between atoms: _285  and  _287
REMARK  123  A    between atoms: _287  and  _288
REMARK  124  A    between atoms: _287  and  _290
REMARK  125  A    between atoms: _290  and  _291
REMARK  126  A    between atoms: _291  and  _292
REMARK  127  A    between atoms: _295  and  _297
REMARK  128  A    between atoms: _297  and  _298
REMARK  129  A    between atoms: _297  and  _300
REMARK  130  A    between atoms: _300  and  _301
REMARK  131  A    between atoms: _301  and  _302
REMARK  132  A    between atoms: _302  and  _303
REMARK  133  A    between atoms: _312  and  _314
REMARK  134  A    between atoms: _314  and  _315
REMARK  135  A    between atoms: _318  and  _320
REMARK  136  A    between atoms: _320  and  _321
REMARK  137  A    between atoms: _320  and  _323
REMARK  138  A    between atoms: _323  and  _324
REMARK  139  A    between atoms: _324  and  _325
REMARK  140  A    between atoms: _325  and  _326
REMARK  141  A    between atoms: _326  and  _327
REMARK  142  A    between atoms: _331  and  _333
REMARK  143  A    between atoms: _333  and  _334
REMARK  144  A    between atoms: _333  and  _336
REMARK  145  A    between atoms: _336  and  _337
REMARK  146  A    between atoms: _337  and  _338
REMARK  147  A    between atoms: _338  and  _339
REMARK  148  A    between atoms: _348  and  _350
REMARK  149  A    between atoms: _350  and  _351
REMARK  150  A    between atoms: _350  and  _353
REMARK  151  A    between atoms: _353  and  _354
REMARK  152  A    between atoms: _357  and  _359
REMARK  153  A    between atoms: _359  and  _360
REMARK  154  A    between atoms: _359  and  _362
REMARK  155  A    between atoms: _362  and  _363
REMARK  156  A    between atoms: _366  and  _368
REMARK  157  A    between atoms: _368  and  _369
REMARK  158  A    between atoms: _368  and  _371
REMARK  159  A    between atoms: _371  and  _372
REMARK  160  A    between atoms: _374  and  _376
REMARK  161  A    between atoms: _376  and  _377
REMARK  162  A    between atoms: _376  and  _379
REMARK  163  A    between atoms: _379  and  _380
REMARK  164  A    between atoms: _382  and  _384
REMARK  165  A    between atoms: _384  and  _385
REMARK  166  A    between atoms: _384  and  _387
REMARK  167  A    between atoms: _387  and  _388
REMARK  168  A    between atoms: _394  and  _396
REMARK  169  A    between atoms: _396  and  _397
REMARK  170  A    between atoms: _396  and  _399
REMARK  171  A    between atoms: _402  and  _404
REMARK  172  A    between atoms: _404  and  _405
REMARK  173  A    between atoms: _407  and  _409
REMARK  174  A    between atoms: _409  and  _410
REMARK  175  A    between atoms: _412  and  _414
REMARK  176  A    between atoms: _414  and  _415
REMARK  177  A    between atoms: _414  and  _417
REMARK  178  A    between atoms: _417  and  _418
REMARK  179  A    between atoms: _420  and  _422
REMARK  180  A    between atoms: _422  and  _423
REMARK  181  A    between atoms: _422  and  _425
REMARK  182  A    between atoms: _425  and  _426
REMARK  183  A    between atoms: _429  and  _431
REMARK  184  A    between atoms: _431  and  _432
REMARK  185  A    between atoms: _431  and  _434
REMARK  186  A    between atoms: _434  and  _435
REMARK  187  A    between atoms: _435  and  _436
REMARK  188  A    between atoms: _436  and  _437
REMARK  189  A    between atoms: _446  and  _448
REMARK  190  A    between atoms: _448  and  _449
REMARK  191  A    between atoms: _448  and  _451
REMARK  192  A    between atoms: _451  and  _452
REMARK  193  A    between atoms: _456  and  _457
REMARK  194  A    between atoms: _462  and  _464
REMARK  195  A    between atoms: _464  and  _465
REMARK  196  A    between atoms: _464  and  _467
REMARK  197  A    between atoms: _467  and  _468
REMARK  198  A    between atoms: _471  and  _473
REMARK  199  A    between atoms: _473  and  _474
REMARK  200  A    between atoms: _473  and  _476
REMARK  201  A    between atoms: _476  and  _477
REMARK  202  A    between atoms: _483  and  _484
REMARK  203  A    between atoms: _489  and  _491
REMARK  204  A    between atoms: _491  and  _492
REMARK  205  A    between atoms: _491  and  _494
REMARK  206  A    between atoms: _494  and  _495
REMARK  207  A    between atoms: _498  and  _500
REMARK  208  A    between atoms: _500  and  _501
REMARK  209  A    between atoms: _500  and  _503
REMARK  210  A    between atoms: _503  and  _504
REMARK  211  A    between atoms: _504  and  _505
REMARK  212  A    between atoms: _508  and  _510
REMARK  213  A    between atoms: _510  and  _511
REMARK  214  A    between atoms: _514  and  _516
REMARK  215  A    between atoms: _516  and  _517
REMARK  216  A    between atoms: _516  and  _519
REMARK                            x       y       z     vdW  Elec       q    Type
REMARK                         _______ _______ _______ _____ _____    ______ ____
ROOT
ATOM      1  C   LYS A   5      22.690  43.784  18.380  0.00  0.00    +0.241 C 
ATOM      2  O   LYS A   5      23.889  43.572  18.496  0.00  0.00    -0.273 OA
ATOM      3  N   ARG A   6      22.042  43.621  17.233  0.00  0.00    -0.297 N 
ATOM      4  H   ARG A   6      21.025  43.835  17.192  0.00  0.00    +0.150 HD
ENDROOT
BRANCH   3   5
ATOM      5  CA  ARG A   6      22.717  43.151  16.030  0.00  0.00    +0.149 C 
BRANCH   5   6
ATOM      6  C   ARG A   6      23.728  44.170  15.503  0.00  0.00    +0.241 C 
ATOM      7  N   THR A   7      23.357  45.445  15.563  0.00  0.00    -0.295 N 
ATOM      8  H   THR A   7      22.416  45.664  15.947  0.00  0.00    +0.150 HD
ATOM      9  O   ARG A   6      24.822  43.804  15.072  0.00  0.00    -0.273 OA
BRANCH   7  10
ATOM     10  CA  THR A   7      24.195  46.555  15.121  0.00  0.00    +0.176 C 
BRANCH  10  11
ATOM     11  C   THR A   7      25.451  46.625  15.992  0.00  0.00    +0.243 C 
ATOM     12  N   LEU A   8      25.279  46.318  17.272  0.00  0.00    -0.297 N 
ATOM     13  H   LEU A   8      24.321  46.068  17.589  0.00  0.00    +0.150 HD
ATOM     14  O   THR A   7      26.540  46.920  15.509  0.00  0.00    -0.273 OA
BRANCH  12  15
ATOM     15  CA  LEU A   8      26.347  46.310  18.259  0.00  0.00    +0.149 C 
BRANCH  15  16
ATOM     16  C   LEU A   8      27.409  45.219  18.014  0.00  0.00    +0.241 C 
ATOM     17  O   LEU A   8      28.440  45.182  18.684  0.00  0.00    -0.273 OA
ATOM     18  N   SER A   9      27.161  44.313  17.076  0.00  0.00    -0.295 N 
ATOM     19  H   SER A   9      26.262  44.335  16.554  0.00  0.00    +0.150 HD
BRANCH  18  20
ATOM     20  CA  SER A   9      28.153  43.288  16.780  0.00  0.00    +0.178 C 
BRANCH  20  21
ATOM     21  C   SER A   9      29.132  43.789  15.715  0.00  0.00    +0.243 C 
ATOM     22  O   SER A   9      30.087  43.107  15.364  0.00  0.00    -0.273 OA
ATOM     23  N   SER A  10      28.898  45.000  15.223  0.00  0.00    -0.296 N 
ATOM     24  H   SER A  10      28.078  45.535  15.573  0.00  0.00    +0.150 HD
BRANCH  23  25
ATOM     25  CA  SER A  10      29.752  45.606  14.208  0.00  0.00    +0.166 C 
BRANCH  25  26
ATOM     26  CB  SER A  10      30.116  47.029  14.599  0.00  0.00    +0.229 C 
ATOM     27  OG  SER A  10      31.195  47.508  14.259  0.00  0.00    -0.286 OA
ENDBRANCH  25  26
BRANCH  25  28
ATOM     28  C   SER A  10      29.048  45.614  12.852  0.00  0.00    +0.165 C 
BRANCH  28  29
ATOM     29  O   SER A  10      28.766  44.291  12.427  0.00  0.00    -0.380 OA
ATOM     30  H   SER A  10      28.178  43.851  13.091  0.00  0.00    +0.211 HD
ENDBRANCH  28  29
ENDBRANCH  25  28
ENDBRANCH  23  25
ENDBRANCH  20  21
BRANCH  20  31
ATOM     31  CB  SER A   9      27.493  41.982  16.334  0.00  0.00    +0.166 C 
BRANCH  31  32
ATOM     32  OG  SER A   9      26.870  41.348  17.432  0.00  0.00    -0.380 OA
ATOM     33  H   SER A   9      26.179  41.948  17.809  0.00  0.00    +0.211 HD
ENDBRANCH  31  32
ENDBRANCH  20  31
ENDBRANCH  18  20
ENDBRANCH  15  16
BRANCH  15  34
ATOM     34  CB  LEU A   8      25.746  46.159  19.657  0.00  0.00    +0.029 C 
BRANCH  34  35
ATOM     35  CG  LEU A   8      25.740  47.356  20.611  0.00  0.00    +0.002 C 
ATOM     36  CD2 LEU A   8      24.609  47.200  21.601  0.00  0.00    +0.000 C 
ATOM     37  CD1 LEU A   8      25.638  48.665  19.880  0.00  0.00    +0.000 C 
ENDBRANCH  34  35
ENDBRANCH  15  34
ENDBRANCH  12  15
ENDBRANCH  10  11
BRANCH  10  38
ATOM     38  CB  THR A   7      23.416  47.887  15.242  0.00  0.00    +0.137 C 
ATOM     39  CG2 THR A   7      24.281  49.085  14.817  0.00  0.00    +0.034 C 
BRANCH  38  40
ATOM     40  OG1 THR A   7      22.237  47.828  14.424  0.00  0.00    -0.382 OA
ATOM     41  HG1 THR A   7      21.740  48.680  14.502  0.00  0.00    +0.210 HD
ENDBRANCH  38  40
ENDBRANCH  10  38
ENDBRANCH   7  10
ENDBRANCH   5   6
BRANCH   5  42
ATOM     42  CB  ARG A   6      21.687  42.802  14.955  0.00  0.00    +0.033 C 
BRANCH  42  43
ATOM     43  CG  ARG A   6      20.794  41.638  15.338  0.00  0.00    +0.045 C 
BRANCH  43  44
ATOM     44  CD  ARG A   6      19.923  41.192  14.186  0.00  0.00    +0.174 C 
BRANCH  44  45
ATOM     45  NE  ARG A   6      19.260  39.931  14.502  0.00  0.00    -0.265 N 
ATOM     46  HE  ARG A   6      19.470  39.493  15.422  0.00  0.00    +0.259 HD
ATOM     47  CZ  ARG A   6      18.408  39.301  13.701  0.00  0.00    +0.342 C 
ATOM     48  NH2 ARG A   6      17.851  38.162  14.089  0.00  0.00    -0.292 N 
ATOM     49 HH21 ARG A   6      18.081  37.762  15.021  0.00  0.00    +0.255 HD
ATOM     50 HH22 ARG A   6      17.184  37.669  13.462  0.00  0.00    +0.255 HD
ATOM     51  NH1 ARG A   6      18.100  39.821  12.527  0.00  0.00    -0.292 N 
ATOM     52 HH11 ARG A   6      18.524  40.723  12.230  0.00  0.00    +0.255 HD
ATOM     53 HH12 ARG A   6      17.433  39.329  11.899  0.00  0.00    +0.255 HD
ENDBRANCH  44  45
ENDBRANCH  43  44
ENDBRANCH  42  43
ENDBRANCH   5  42
ENDBRANCH   3   5
BRANCH   1  54
ATOM     54  CA  LYS A   5      21.863  44.288  19.568  0.00  0.00    +0.149 C 
BRANCH  54  56
ATOM     55  C   ALA A   4      21.333  46.433  18.507  0.00  0.00    +0.241 C 
ATOM     56  N   LYS A   5      20.936  45.336  19.146  0.00  0.00    -0.297 N 
ATOM     57  H   LYS A   5      19.924  45.219  19.354  0.00  0.00    +0.150 HD
ATOM     58  O   ALA A   4      22.501  46.637  18.182  0.00  0.00    -0.273 OA
BRANCH  55  59
ATOM     59  CA  ALA A   4      20.241  47.431  18.136  0.00  0.00    +0.149 C 
ATOM     60  CB  ALA A   4      19.852  48.249  19.360  0.00  0.00    +0.031 C 
BRANCH  59  62
ATOM     61  C   ARG A   3      19.167  45.918  16.552  0.00  0.00    +0.241 C 
ATOM     62  N   ALA A   4      19.093  46.685  17.636  0.00  0.00    -0.297 N 
ATOM     63  H   ALA A   4      18.188  46.755  18.143  0.00  0.00    +0.150 HD
ATOM     64  O   ARG A   3      20.193  45.811  15.872  0.00  0.00    -0.273 OA
BRANCH  61  65
ATOM     65  CA  ARG A   3      17.882  45.175  16.161  0.00  0.00    +0.149 C 
BRANCH  65  68
ATOM     66  C   GLU A   2      17.772  43.533  17.956  0.00  0.00    +0.241 C 
ATOM     67  O   GLU A   2      18.865  43.049  17.631  0.00  0.00    -0.273 OA
ATOM     68  N   ARG A   3      17.245  44.580  17.329  0.00  0.00    -0.297 N 
ATOM     69  H   ARG A   3      16.354  44.985  17.681  0.00  0.00    +0.150 HD
BRANCH  66  70
ATOM     70  CA  GLU A   2      16.992  43.002  19.175  0.00  0.00    +0.149 C 
BRANCH  70  73
ATOM     71  C   CYS A   1      17.237  45.014  20.532  0.00  0.00    +0.239 C 
ATOM     72  O   CYS A   1      18.458  44.958  20.489  0.00  0.00    -0.274 OA
ATOM     73  N   GLU A   2      16.455  44.131  19.927  0.00  0.00    -0.297 N 
ATOM     74  H   GLU A   2      15.423  44.247  19.991  0.00  0.00    +0.150 HD
BRANCH  71  75
ATOM     75  CA  CYS A   1      16.549  46.145  21.272  0.00  0.00    +0.156 C 
BRANCH  75  76
ATOM     76  N   CYS A   1      15.365  46.644  20.582  0.00  0.00    -0.237 NA
ATOM     77  H   CYS A   1      14.432  46.513  21.023  0.00  0.00    +0.142 HD
ENDBRANCH  75  76
BRANCH  75  78
ATOM     78  CB  CYS A   1      16.204  45.707  22.688  0.00  0.00    +0.095 C 
ATOM     79  SG  CYS A   1      15.809  47.101  23.741  0.00  0.00    -0.080 S 
ENDBRANCH  75  78
ENDBRANCH  71  75
ENDBRANCH  70  73
BRANCH  70  80
ATOM     80  CB  GLU A   2      15.828  42.093  18.743  0.00  0.00    +0.041 C 
BRANCH  80  81
ATOM     81  CG  GLU A   2      16.206  40.697  18.260  0.00  0.00    +0.116 C 
BRANCH  81  82
ATOM     82  CD  GLU A   2      16.503  40.611  16.760  0.00  0.00    +0.365 C 
ATOM     83  OE2 GLU A   2      17.102  39.597  16.330  0.00  0.00    -0.246 OA
ATOM     84  OE1 GLU A   2      16.126  41.531  15.998  0.00  0.00    -0.246 OA
ENDBRANCH  81  82
ENDBRANCH  80  81
ENDBRANCH  70  80
ENDBRANCH  66  70
ENDBRANCH  65  68
BRANCH  65  85
ATOM     85  CB  ARG A   3      16.910  46.123  15.451  0.00  0.00    +0.033 C 
BRANCH  85  86
ATOM     86  CG  ARG A   3      17.214  46.291  13.963  0.00  0.00    +0.045 C 
BRANCH  86  87
ATOM     87  CD  ARG A   3      16.450  47.443  13.323  0.00  0.00    +0.174 C 
BRANCH  87  88
ATOM     88  NE  ARG A   3      16.626  47.485  11.870  0.00  0.00    -0.265 N 
ATOM     89  HE  ARG A   3      15.826  47.174  11.282  0.00  0.00    +0.259 HD
ATOM     90  CZ  ARG A   3      17.731  47.890  11.239  0.00  0.00    +0.342 C 
ATOM     91  NH2 ARG A   3      18.799  48.292  11.922  0.00  0.00    -0.292 N 
ATOM     92 HH21 ARG A   3      18.781  48.294  12.962  0.00  0.00    +0.255 HD
ATOM     93 HH22 ARG A   3      19.652  48.605  11.416  0.00  0.00    +0.255 HD
ATOM     94  NH1 ARG A   3      17.771  47.885   9.910  0.00  0.00    -0.292 N 
ATOM     95 HH11 ARG A   3      18.630  48.200   9.414  0.00  0.00    +0.255 HD
ATOM     96 HH12 ARG A   3      16.944  47.567   9.366  0.00  0.00    +0.255 HD
ENDBRANCH  87  88
ENDBRANCH  86  87
ENDBRANCH  85  86
ENDBRANCH  65  85
ENDBRANCH  61  65
ENDBRANCH  59  62
ENDBRANCH  55  59
ENDBRANCH  54  56
BRANCH  54  97
ATOM     97  CB  LYS A   5      21.090  43.130  20.203  0.00  0.00    +0.029 C 
BRANCH  97  98
ATOM     98  CG  LYS A   5      21.963  42.007  20.709  0.00  0.00    +0.000 C 
BRANCH  98  99
ATOM     99  CD  LYS A   5      21.149  40.789  21.130  0.00  0.00    -0.024 C 
BRANCH  99 100
ATOM    100  CE  LYS A   5      20.443  40.152  19.940  0.00  0.00    -0.086 C 
BRANCH 100 101
ATOM    101  NZ  LYS A   5      19.638  38.974  20.353  0.00  0.00    +0.380 N 
ATOM    102  HZ1 LYS A   5      18.919  39.272  21.043  0.00  0.00    -0.089 HD
ATOM    103  HZ2 LYS A   5      20.262  38.264  20.786  0.00  0.00    -0.089 HD
ATOM    104  HZ3 LYS A   5      19.171  38.565  19.519  0.00  0.00    -0.089 HD
ENDBRANCH 100 101
ENDBRANCH  99 100
ENDBRANCH  98  99
ENDBRANCH  97  98
ENDBRANCH  54  97
ENDBRANCH   1  54
TORSDOF 45
REMARK  Name = ../refined-set-2016/1atr/1atr_pocket.pdb
REMARK  216 active torsions:
REMARK  status: ('A' for Active; 'I' for Inactive)
REMARK    1  A    between atoms: _1  and  _3
REMARK    2  A    between atoms: _3  and  _4
REMARK    3  A    between atoms: _3  and  _6
REMARK    4  A    between atoms: _6  and  _7
REMARK    5  A    between atoms: _10  and  _12
REMARK    6  A    between atoms: _12  and  _13
REMARK    7  A    between atoms: _12  and  _15
REMARK    8  A    between atoms: _15  and  _16
REMARK    9  A    between atoms: _19  and  _21
REMARK   10  A    between atoms: _21  and  _22
REMARK   11  A    between atoms: _24  and  _26
REMARK   12  A    between atoms: _26  and  _27
REMARK   13  A    between atoms: _26  and  _29
REMARK   14  A    between atoms: _29  and  _30
REMARK   15  A    between atoms: _33  and  _35
REMARK   16  A    between atoms: _35  and  _36
REMARK   17  A    between atoms: _35  and  _38
REMARK   18  A    between atoms: _38  and  _39
REMARK   19  A    between atoms: _42  and  _44
REMARK   20  A    between atoms: _44  and  _45
REMARK   21  A    between atoms: _44  and  _47
REMARK   22  A    between atoms: _47  and  _48
REMARK   23  A    between atoms: _53  and  _54
REMARK   24  A    between atoms: _56  and  _58
REMARK   25  A    between atoms: _58  and  _59
REMARK   26  A    between atoms: _58  and  _61
REMARK   27  A    between atoms: _61  and  _62
REMARK   28  A    between atoms: _64  and  _66
REMARK   29  A    between atoms: _66  and  _67
REMARK   30  A    between atoms: _66  and  _69
REMARK   31  A    between atoms: _71  and  _73
REMARK   32  A    between atoms: _73  and  _74
REMARK   33  A    between atoms: _73  and  _76
REMARK   34  A    between atoms: _76  and  _77
REMARK   35  A    between atoms: _80  and  _82
REMARK   36  A    between atoms: _82  and  _83
REMARK   37  A    between atoms: _82  and  _85
REMARK   38  A    between atoms: _85  and  _86
REMARK   39  A    between atoms: _90  and  _91
REMARK   40  A    between atoms: _96  and  _98
REMARK   41  A    between atoms: _98  and  _99
REMARK   42  A    between atoms: _98  and  _101
REMARK   43  A    between atoms: _101  and  _102
REMARK   44  A    between atoms: _104  and  _106
REMARK   45  A    between atoms: _106  and  _107
REMARK   46  A    between atoms: _106  and  _109
REMARK   47  A    between atoms: _109  and  _110
REMARK   48  A    between atoms: _110  and  _111
REMARK   49  A    between atoms: _111  and  _112
REMARK   50  A    between atoms: _112  and  _113
REMARK   51  A    between atoms: _117  and  _119
REMARK   52  A    between atoms: _119  and  _120
REMARK   53  A    between atoms: _119  and  _122
REMARK   54  A    between atoms: _122  and  _123
REMARK   55  A    between atoms: _126  and  _128
REMARK   56  A    between atoms: _128  and  _129
REMARK   57  A    between atoms: _128  and  _131
REMARK   58  A    between atoms: _131  and  _132
REMARK   59  A    between atoms: _132  and  _133
REMARK   60  A    between atoms: _133  and  _134
REMARK   61  A    between atoms: _134  and  _135
REMARK   62  A    between atoms: _139  and  _141
REMARK   63  A    between atoms: _141  and  _142
REMARK   64  A    between atoms: _141  and  _144
REMARK   65  A    between atoms: _144  and  _145
REMARK   66  A    between atoms: _145  and  _146
REMARK   67  A    between atoms: _146  and  _147
REMARK   68  A    between atoms: _156  and  _158
REMARK   69  A    between atoms: _158  and  _159
REMARK   70  A    between atoms: _158  and  _161
REMARK   71  A    between atoms: _161  and  _162
REMARK   72  A    between atoms: _162  and  _163
REMARK   73  A    between atoms: _166  and  _168
REMARK   74  A    between atoms: _168  and  _169
REMARK   75  A    between atoms: _168  and  _171
REMARK   76  A    between atoms: _171  and  _172
REMARK   77  A    between atoms: _175  and  _177
REMARK   78  A    between atoms: _177  and  _178
REMARK   79  A    between atoms: _177  and  _180
REMARK   80  A    between atoms: _180  and  _181
REMARK   81  A    between atoms: _184  and  _186
REMARK   82  A    between atoms: _186  and  _187
REMARK   83  A    between atoms: _189  and  _191
REMARK   84  A    between atoms: _191  and  _192
REMARK   85  A    between atoms: _194  and  _196
REMARK   86  A    between atoms: _196  and  _197
REMARK   87  A    between atoms: _199  and  _201
REMARK   88  A    between atoms: _201  and  _202
REMARK   89  A    between atoms: _201  and  _204
REMARK   90  A    between atoms: _207  and  _209
REMARK   91  A    between atoms: _209  and  _210
REMARK   92  A    between atoms: _209  and  _212
REMARK   93  A    between atoms: _212  and  _213
REMARK   94  A    between atoms: _219  and  _221
REMARK   95  A    between atoms: _221  and  _222
REMARK   96  A    between atoms: _221  and  _224
REMARK   97  A    between atoms: _224  and  _225
REMARK   98  A    between atoms: _228  and  _230
REMARK   99  A    between atoms: _230  and  _231
REMARK  100  A    between atoms: _233  and  _235
REMARK  101  A    between atoms: _235  and  _236
REMARK  102  A    between atoms: _238  and  _240
REMARK  103  A    between atoms: _240  and  _241
REMARK  104  A    between atoms: _240  and  _243
REMARK  105  A    between atoms: _243  and  _244
REMARK  106  A    between atoms: _244  and  _245
REMARK  107  A    between atoms: _248  and  _250
REMARK  108  A    between atoms: _250  and  _251
REMARK  109  A    between atoms: _250  and  _253
REMARK  110  A    between atoms: _253  and  _254
REMARK  111  A    between atoms: _257  and  _259
REMARK  112  A    between atoms: _259  and  _260
REMARK  113  A    between atoms: _259  and  _262
REMARK  114  A    between atoms: _262  and  _263
REMARK  115  A    between atoms: _269  and  _271
REMARK  116  A    between atoms: _271  and  _272
REMARK  117  A    between atoms: _271  and  _274
REMARK  118  A    between atoms: _274  and  _275
REMARK  119  A    between atoms: _278  and  _280
REMARK  120  A    between atoms: _280  and  _281
REMARK  121  A    between atoms: _280  and  _283
REMARK  122  A    between atoms: _285  and  _287
REMARK  123  A    between atoms: _287  and  _288
REMARK  124  A    between atoms: _287  and  _290
REMARK  125  A    between atoms: _290  and  _291
REMARK  126  A    between atoms: _291  and  _292
REMARK  127  A    between atoms: _295  and  _297
REMARK  128  A    between atoms: _297  and  _298
REMARK  129  A    between atoms: _297  and  _300
REMARK  130  A    between atoms: _300  and  _301
REMARK  131  A    between atoms: _301  and  _302
REMARK  132  A    between atoms: _302  and  _303
REMARK  133  A    between atoms: _312  and  _314
REMARK  134  A    between atoms: _314  and  _315
REMARK  135  A    between atoms: _318  and  _320
REMARK  136  A    between atoms: _320  and  _321
REMARK  137  A    between atoms: _320  and  _323
REMARK  138  A    between atoms: _323  and  _324
REMARK  139  A    between atoms: _324  and  _325
REMARK  140  A    between atoms: _325  and  _326
REMARK  141  A    between atoms: _326  and  _327
REMARK  142  A    between atoms: _331  and  _333
REMARK  143  A    between atoms: _333  and  _334
REMARK  144  A    between atoms: _333  and  _336
REMARK  145  A    between atoms: _336  and  _337
REMARK  146  A    between atoms: _337  and  _338
REMARK  147  A    between atoms: _338  and  _339
REMARK  148  A    between atoms: _348  and  _350
REMARK  149  A    between atoms: _350  and  _351
REMARK  150  A    between atoms: _350  and  _353
REMARK  151  A    between atoms: _353  and  _354
REMARK  152  A    between atoms: _357  and  _359
REMARK  153  A    between atoms: _359  and  _360
REMARK  154  A    between atoms: _359  and  _362
REMARK  155  A    between atoms: _362  and  _363
REMARK  156  A    between atoms: _366  and  _368
REMARK  157  A    between atoms: _368  and  _369
REMARK  158  A    between atoms: _368  and  _371
REMARK  159  A    between atoms: _371  and  _372
REMARK  160  A    between atoms: _374  and  _376
REMARK  161  A    between atoms: _376  and  _377
REMARK  162  A    between atoms: _376  and  _379
REMARK  163  A    between atoms: _379  and  _380
REMARK  164  A    between atoms: _382  and  _384
REMARK  165  A    between atoms: _384  and  _385
REMARK  166  A    between atoms: _384  and  _387
REMARK  167  A    between atoms: _387  and  _388
REMARK  168  A    between atoms: _394  and  _396
REMARK  169  A    between atoms: _396  and  _397
REMARK  170  A    between atoms: _396  and  _399
REMARK  171  A    between atoms: _402  and  _404
REMARK  172  A    between atoms: _404  and  _405
REMARK  173  A    between atoms: _407  and  _409
REMARK  174  A    between atoms: _409  and  _410
REMARK  175  A    between atoms: _412  and  _414
REMARK  176  A    between atoms: _414  and  _415
REMARK  177  A    between atoms: _414  and  _417
REMARK  178  A    between atoms: _417  and  _418
REMARK  179  A    between atoms: _420  and  _422
REMARK  180  A    between atoms: _422  and  _423
REMARK  181  A    between atoms: _422  and  _425
REMARK  182  A    between atoms: _425  and  _426
REMARK  183  A    between atoms: _429  and  _431
REMARK  184  A    between atoms: _431  and  _432
REMARK  185  A    between atoms: _431  and  _434
REMARK  186  A    between atoms: _434  and  _435
REMARK  187  A    between atoms: _435  and  _436
REMARK  188  A    between atoms: _436  and  _437
REMARK  189  A    between atoms: _446  and  _448
REMARK  190  A    between atoms: _448  and  _449
REMARK  191  A    between atoms: _448  and  _451
REMARK  192  A    between atoms: _451  and  _452
REMARK  193  A    between atoms: _456  and  _457
REMARK  194  A    between atoms: _462  and  _464
REMARK  195  A    between atoms: _464  and  _465
REMARK  196  A    between atoms: _464  and  _467
REMARK  197  A    between atoms: _467  and  _468
REMARK  198  A    between atoms: _471  and  _473
REMARK  199  A    between atoms: _473  and  _474
REMARK  200  A    between atoms: _473  and  _476
REMARK  201  A    between atoms: _476  and  _477
REMARK  202  A    between atoms: _483  and  _484
REMARK  203  A    between atoms: _489  and  _491
REMARK  204  A    between atoms: _491  and  _492
REMARK  205  A    between atoms: _491  and  _494
REMARK  206  A    between atoms: _494  and  _495
REMARK  207  A    between atoms: _498  and  _500
REMARK  208  A    between atoms: _500  and  _501
REMARK  209  A    between atoms: _500  and  _503
REMARK  210  A    between atoms: _503  and  _504
REMARK  211  A    between atoms: _504  and  _505
REMARK  212  A    between atoms: _508  and  _510
REMARK  213  A    between atoms: _510  and  _511
REMARK  214  A    between atoms: _514  and  _516
REMARK  215  A    between atoms: _516  and  _517
REMARK  216  A    between atoms: _516  and  _519
REMARK                            x       y       z     vdW  Elec       q    Type
REMARK                         _______ _______ _______ _____ _____    ______ ____
ROOT
ATOM      1  CB  PHE A   1      25.292  46.092  24.843  0.00  0.00    +0.051 C 
ENDROOT
BRANCH   1   2
ATOM      2  CG  PHE A   1      24.804  44.732  24.380  0.00  0.00    -0.020 A 
ATOM      3  CD2 PHE A   1      23.457  44.391  24.460  0.00  0.00    -0.004 A 
ATOM      4  CE2 PHE A   1      23.022  43.121  24.089  0.00  0.00    -0.000 A 
ATOM      5  CZ  PHE A   1      23.932  42.177  23.629  0.00  0.00    -0.000 A 
ATOM      6  CE1 PHE A   1      25.273  42.504  23.539  0.00  0.00    -0.000 A 
ATOM      7  CD1 PHE A   1      25.704  43.774  23.912  0.00  0.00    -0.004 A 
ENDBRANCH   1   2
BRANCH   1   8
ATOM      8  CA  PHE A   1      25.346  46.246  26.371  0.00  0.00    +0.137 C 
BRANCH   8   9
ATOM      9  N   PHE A   1      26.014  47.489  26.751  0.00  0.00    -0.239 NA
ATOM     10  H   PHE A   1      26.399  48.109  26.010  0.00  0.00    +0.142 HD
ENDBRANCH   8   9
BRANCH   8  11
ATOM     11  C   PHE A   1      26.057  45.039  27.007  0.00  0.00    +0.224 C 
ATOM     12  O   PHE A   1      25.406  44.105  27.494  0.00  0.00    -0.287 OA
ENDBRANCH   8  11
ENDBRANCH   1   8
TORSDOF 4
REMARK  Name = ../refined-set-2016/1atr/1atr_pocket.pdb
REMARK  216 active torsions:
REMARK  status: ('A' for Active; 'I' for Inactive)
REMARK    1  A    between atoms: _1  and  _3
REMARK    2  A    between atoms: _3  and  _4
REMARK    3  A    between atoms: _3  and  _6
REMARK    4  A    between atoms: _6  and  _7
REMARK    5  A    between atoms: _10  and  _12
REMARK    6  A    between atoms: _12  and  _13
REMARK    7  A    between atoms: _12  and  _15
REMARK    8  A    between atoms: _15  and  _16
REMARK    9  A    between atoms: _19  and  _21
REMARK   10  A    between atoms: _21  and  _22
REMARK   11  A    between atoms: _24  and  _26
REMARK   12  A    between atoms: _26  and  _27
REMARK   13  A    between atoms: _26  and  _29
REMARK   14  A    between atoms: _29  and  _30
REMARK   15  A    between atoms: _33  and  _35
REMARK   16  A    between atoms: _35  and  _36
REMARK   17  A    between atoms: _35  and  _38
REMARK   18  A    between atoms: _38  and  _39
REMARK   19  A    between atoms: _42  and  _44
REMARK   20  A    between atoms: _44  and  _45
REMARK   21  A    between atoms: _44  and  _47
REMARK   22  A    between atoms: _47  and  _48
REMARK   23  A    between atoms: _53  and  _54
REMARK   24  A    between atoms: _56  and  _58
REMARK   25  A    between atoms: _58  and  _59
REMARK   26  A    between atoms: _58  and  _61
REMARK   27  A    between atoms: _61  and  _62
REMARK   28  A    between atoms: _64  and  _66
REMARK   29  A    between atoms: _66  and  _67
REMARK   30  A    between atoms: _66  and  _69
REMARK   31  A    between atoms: _71  and  _73
REMARK   32  A    between atoms: _73  and  _74
REMARK   33  A    between atoms: _73  and  _76
REMARK   34  A    between atoms: _76  and  _77
REMARK   35  A    between atoms: _80  and  _82
REMARK   36  A    between atoms: _82  and  _83
REMARK   37  A    between atoms: _82  and  _85
REMARK   38  A    between atoms: _85  and  _86
REMARK   39  A    between atoms: _90  and  _91
REMARK   40  A    between atoms: _96  and  _98
REMARK   41  A    between atoms: _98  and  _99
REMARK   42  A    between atoms: _98  and  _101
REMARK   43  A    between atoms: _101  and  _102
REMARK   44  A    between atoms: _104  and  _106
REMARK   45  A    between atoms: _106  and  _107
REMARK   46  A    between atoms: _106  and  _109
REMARK   47  A    between atoms: _109  and  _110
REMARK   48  A    between atoms: _110  and  _111
REMARK   49  A    between atoms: _111  and  _112
REMARK   50  A    between atoms: _112  and  _113
REMARK   51  A    between atoms: _117  and  _119
REMARK   52  A    between atoms: _119  and  _120
REMARK   53  A    between atoms: _119  and  _122
REMARK   54  A    between atoms: _122  and  _123
REMARK   55  A    between atoms: _126  and  _128
REMARK   56  A    between atoms: _128  and  _129
REMARK   57  A    between atoms: _128  and  _131
REMARK   58  A    between atoms: _131  and  _132
REMARK   59  A    between atoms: _132  and  _133
REMARK   60  A    between atoms: _133  and  _134
REMARK   61  A    between atoms: _134  and  _135
REMARK   62  A    between atoms: _139  and  _141
REMARK   63  A    between atoms: _141  and  _142
REMARK   64  A    between atoms: _141  and  _144
REMARK   65  A    between atoms: _144  and  _145
REMARK   66  A    between atoms: _145  and  _146
REMARK   67  A    between atoms: _146  and  _147
REMARK   68  A    between atoms: _156  and  _158
REMARK   69  A    between atoms: _158  and  _159
REMARK   70  A    between atoms: _158  and  _161
REMARK   71  A    between atoms: _161  and  _162
REMARK   72  A    between atoms: _162  and  _163
REMARK   73  A    between atoms: _166  and  _168
REMARK   74  A    between atoms: _168  and  _169
REMARK   75  A    between atoms: _168  and  _171
REMARK   76  A    between atoms: _171  and  _172
REMARK   77  A    between atoms: _175  and  _177
REMARK   78  A    between atoms: _177  and  _178
REMARK   79  A    between atoms: _177  and  _180
REMARK   80  A    between atoms: _180  and  _181
REMARK   81  A    between atoms: _184  and  _186
REMARK   82  A    between atoms: _186  and  _187
REMARK   83  A    between atoms: _189  and  _191
REMARK   84  A    between atoms: _191  and  _192
REMARK   85  A    between atoms: _194  and  _196
REMARK   86  A    between atoms: _196  and  _197
REMARK   87  A    between atoms: _199  and  _201
REMARK   88  A    between atoms: _201  and  _202
REMARK   89  A    between atoms: _201  and  _204
REMARK   90  A    between atoms: _207  and  _209
REMARK   91  A    between atoms: _209  and  _210
REMARK   92  A    between atoms: _209  and  _212
REMARK   93  A    between atoms: _212  and  _213
REMARK   94  A    between atoms: _219  and  _221
REMARK   95  A    between atoms: _221  and  _222
REMARK   96  A    between atoms: _221  and  _224
REMARK   97  A    between atoms: _224  and  _225
REMARK   98  A    between atoms: _228  and  _230
REMARK   99  A    between atoms: _230  and  _231
REMARK  100  A    between atoms: _233  and  _235
REMARK  101  A    between atoms: _235  and  _236
REMARK  102  A    between atoms: _238  and  _240
REMARK  103  A    between atoms: _240  and  _241
REMARK  104  A    between atoms: _240  and  _243
REMARK  105  A    between atoms: _243  and  _244
REMARK  106  A    between atoms: _244  and  _245
REMARK  107  A    between atoms: _248  and  _250
REMARK  108  A    between atoms: _250  and  _251
REMARK  109  A    between atoms: _250  and  _253
REMARK  110  A    between atoms: _253  and  _254
REMARK  111  A    between atoms: _257  and  _259
REMARK  112  A    between atoms: _259  and  _260
REMARK  113  A    between atoms: _259  and  _262
REMARK  114  A    between atoms: _262  and  _263
REMARK  115  A    between atoms: _269  and  _271
REMARK  116  A    between atoms: _271  and  _272
REMARK  117  A    between atoms: _271  and  _274
REMARK  118  A    between atoms: _274  and  _275
REMARK  119  A    between atoms: _278  and  _280
REMARK  120  A    between atoms: _280  and  _281
REMARK  121  A    between atoms: _280  and  _283
REMARK  122  A    between atoms: _285  and  _287
REMARK  123  A    between atoms: _287  and  _288
REMARK  124  A    between atoms: _287  and  _290
REMARK  125  A    between atoms: _290  and  _291
REMARK  126  A    between atoms: _291  and  _292
REMARK  127  A    between atoms: _295  and  _297
REMARK  128  A    between atoms: _297  and  _298
REMARK  129  A    between atoms: _297  and  _300
REMARK  130  A    between atoms: _300  and  _301
REMARK  131  A    between atoms: _301  and  _302
REMARK  132  A    between atoms: _302  and  _303
REMARK  133  A    between atoms: _312  and  _314
REMARK  134  A    between atoms: _314  and  _315
REMARK  135  A    between atoms: _318  and  _320
REMARK  136  A    between atoms: _320  and  _321
REMARK  137  A    between atoms: _320  and  _323
REMARK  138  A    between atoms: _323  and  _324
REMARK  139  A    between atoms: _324  and  _325
REMARK  140  A    between atoms: _325  and  _326
REMARK  141  A    between atoms: _326  and  _327
REMARK  142  A    between atoms: _331  and  _333
REMARK  143  A    between atoms: _333  and  _334
REMARK  144  A    between atoms: _333  and  _336
REMARK  145  A    between atoms: _336  and  _337
REMARK  146  A    between atoms: _337  and  _338
REMARK  147  A    between atoms: _338  and  _339
REMARK  148  A    between atoms: _348  and  _350
REMARK  149  A    between atoms: _350  and  _351
REMARK  150  A    between atoms: _350  and  _353
REMARK  151  A    between atoms: _353  and  _354
REMARK  152  A    between atoms: _357  and  _359
REMARK  153  A    between atoms: _359  and  _360
REMARK  154  A    between atoms: _359  and  _362
REMARK  155  A    between atoms: _362  and  _363
REMARK  156  A    between atoms: _366  and  _368
REMARK  157  A    between atoms: _368  and  _369
REMARK  158  A    between atoms: _368  and  _371
REMARK  159  A    between atoms: _371  and  _372
REMARK  160  A    between atoms: _374  and  _376
REMARK  161  A    between atoms: _376  and  _377
REMARK  162  A    between atoms: _376  and  _379
REMARK  163  A    between atoms: _379  and  _380
REMARK  164  A    between atoms: _382  and  _384
REMARK  165  A    between atoms: _384  and  _385
REMARK  166  A    between atoms: _384  and  _387
REMARK  167  A    between atoms: _387  and  _388
REMARK  168  A    between atoms: _394  and  _396
REMARK  169  A    between atoms: _396  and  _397
REMARK  170  A    between atoms: _396  and  _399
REMARK  171  A    between atoms: _402  and  _404
REMARK  172  A    between atoms: _404  and  _405
REMARK  173  A    between atoms: _407  and  _409
REMARK  174  A    between atoms: _409  and  _410
REMARK  175  A    between atoms: _412  and  _414
REMARK  176  A    between atoms: _414  and  _415
REMARK  177  A    between atoms: _414  and  _417
REMARK  178  A    between atoms: _417  and  _418
REMARK  179  A    between atoms: _420  and  _422
REMARK  180  A    between atoms: _422  and  _423
REMARK  181  A    between atoms: _422  and  _425
REMARK  182  A    between atoms: _425  and  _426
REMARK  183  A    between atoms: _429  and  _431
REMARK  184  A    between atoms: _431  and  _432
REMARK  185  A    between atoms: _431  and  _434
REMARK  186  A    between atoms: _434  and  _435
REMARK  187  A    between atoms: _435  and  _436
REMARK  188  A    between atoms: _436  and  _437
REMARK  189  A    between atoms: _446  and  _448
REMARK  190  A    between atoms: _448  and  _449
REMARK  191  A    between atoms: _448  and  _451
REMARK  192  A    between atoms: _451  and  _452
REMARK  193  A    between atoms: _456  and  _457
REMARK  194  A    between atoms: _462  and  _464
REMARK  195  A    between atoms: _464  and  _465
REMARK  196  A    between atoms: _464  and  _467
REMARK  197  A    between atoms: _467  and  _468
REMARK  198  A    between atoms: _471  and  _473
REMARK  199  A    between atoms: _473  and  _474
REMARK  200  A    between atoms: _473  and  _476
REMARK  201  A    between atoms: _476  and  _477
REMARK  202  A    between atoms: _483  and  _484
REMARK  203  A    between atoms: _489  and  _491
REMARK  204  A    between atoms: _491  and  _492
REMARK  205  A    between atoms: _491  and  _494
REMARK  206  A    between atoms: _494  and  _495
REMARK  207  A    between atoms: _498  and  _500
REMARK  208  A    between atoms: _500  and  _501
REMARK  209  A    between atoms: _500  and  _503
REMARK  210  A    between atoms: _503  and  _504
REMARK  211  A    between atoms: _504  and  _505
REMARK  212  A    between atoms: _508  and  _510
REMARK  213  A    between atoms: _510  and  _511
REMARK  214  A    between atoms: _514  and  _516
REMARK  215  A    between atoms: _516  and  _517
REMARK  216  A    between atoms: _516  and  _519
REMARK                            x       y       z     vdW  Elec       q    Type
REMARK                         _______ _______ _______ _____ _____    ______ ____
ROOT
ATOM      1  C   THR A   5      28.633  34.789  17.813  0.00  0.00    +0.243 C 
ATOM      2  O   THR A   5      29.859  34.783  17.694  0.00  0.00    -0.273 OA
ATOM      3  N   ARG A   6      27.852  35.738  17.281  0.00  0.00    -0.297 N 
ATOM      4  H   ARG A   6      26.823  35.673  17.414  0.00  0.00    +0.150 HD
ENDROOT
BRANCH   3   5
ATOM      5  CA  ARG A   6      28.395  36.863  16.520  0.00  0.00    +0.149 C 
BRANCH   5   6
ATOM      6  C   ARG A   6      28.805  37.971  17.471  0.00  0.00    +0.241 C 
ATOM      7  N   ILE A   7      28.433  37.837  18.735  0.00  0.00    -0.297 N 
ATOM      8  H   ILE A   7      27.895  36.996  19.026  0.00  0.00    +0.150 HD
ATOM      9  O   ARG A   6      29.400  38.963  17.060  0.00  0.00    -0.273 OA
BRANCH   7  10
ATOM     10  CA  ILE A   7      28.767  38.850  19.719  0.00  0.00    +0.149 C 
BRANCH  10  11
ATOM     11  C   ILE A   7      30.252  38.749  20.054  0.00  0.00    +0.244 C 
ATOM     12  O   ILE A   7      30.728  37.690  20.478  0.00  0.00    -0.273 OA
ATOM     13  N   PRO A   8      31.002  39.855  19.860  0.00  0.00    -0.273 N 
ATOM     14  CA  PRO A   8      32.448  39.983  20.114  0.00  0.00    +0.140 C 
ATOM     15  CB  PRO A   8      32.671  41.488  20.009  0.00  0.00    +0.030 C 
ATOM     16  CG  PRO A   8      31.715  41.880  18.954  0.00  0.00    +0.024 C 
ATOM     17  CD  PRO A   8      30.458  41.135  19.372  0.00  0.00    +0.094 C 
BRANCH  14  18
ATOM     18  C   PRO A   8      32.885  39.461  21.483  0.00  0.00    +0.227 C 
ATOM     19  O   PRO A   8      33.792  38.635  21.580  0.00  0.00    -0.286 OA
ENDBRANCH  14  18
ENDBRANCH  10  11
BRANCH  10  20
ATOM     20  CB  ILE A   7      27.884  38.689  20.984  0.00  0.00    +0.027 C 
ATOM     21  CG2 ILE A   7      28.307  39.668  22.084  0.00  0.00    +0.002 C 
BRANCH  20  22
ATOM     22  CG1 ILE A   7      26.410  38.935  20.617  0.00  0.00    +0.002 C 
ATOM     23  CD1 ILE A   7      25.424  38.618  21.734  0.00  0.00    +0.000 C 
ENDBRANCH  20  22
ENDBRANCH  10  20
ENDBRANCH   7  10
ENDBRANCH   5   6
BRANCH   5  24
ATOM     24  CB  ARG A   6      27.366  37.448  15.546  0.00  0.00    +0.033 C 
BRANCH  24  25
ATOM     25  CG  ARG A   6      26.951  36.563  14.395  0.00  0.00    +0.045 C 
BRANCH  25  26
ATOM     26  CD  ARG A   6      26.132  37.383  13.386  0.00  0.00    +0.174 C 
BRANCH  26  27
ATOM     27  NE  ARG A   6      25.419  36.547  12.421  0.00  0.00    -0.265 N 
ATOM     28  HE  ARG A   6      24.905  35.719  12.784  0.00  0.00    +0.259 HD
ATOM     29  CZ  ARG A   6      25.382  36.773  11.109  0.00  0.00    +0.342 C 
ATOM     30  NH2 ARG A   6      26.020  37.821  10.598  0.00  0.00    -0.292 N 
ATOM     31 HH21 ARG A   6      26.548  38.464  11.223  0.00  0.00    +0.255 HD
ATOM     32 HH22 ARG A   6      25.992  37.998   9.574  0.00  0.00    +0.255 HD
ATOM     33  NH1 ARG A   6      24.713  35.949  10.310  0.00  0.00    -0.292 N 
ATOM     34 HH11 ARG A   6      24.217  35.126  10.709  0.00  0.00    +0.255 HD
ATOM     35 HH12 ARG A   6      24.685  36.127   9.286  0.00  0.00    +0.255 HD
ENDBRANCH  26  27
ENDBRANCH  25  26
ENDBRANCH  24  25
ENDBRANCH   5  24
ENDBRANCH   3   5
BRANCH   1  36
ATOM     36  CA  THR A   5      27.932  33.693  18.625  0.00  0.00    +0.176 C 
BRANCH  36  39
ATOM     37  C   SER A   4      25.861  34.757  19.276  0.00  0.00    +0.243 C 
ATOM     38  O   SER A   4      26.475  35.560  19.990  0.00  0.00    -0.273 OA
ATOM     39  N   THR A   5      26.484  33.817  18.566  0.00  0.00    -0.295 N 
ATOM     40  H   THR A   5      25.933  33.170  17.967  0.00  0.00    +0.150 HD
BRANCH  37  41
ATOM     41  CA  SER A   4      24.325  34.830  19.162  0.00  0.00    +0.178 C 
BRANCH  41  43
ATOM     42  C   GLY A   3      23.876  34.616  16.791  0.00  0.00    +0.243 C 
ATOM     43  N   SER A   4      23.744  34.131  18.019  0.00  0.00    -0.295 N 
ATOM     44  H   SER A   4      23.222  33.244  18.169  0.00  0.00    +0.150 HD
ATOM     45  O   GLY A   3      24.493  35.654  16.552  0.00  0.00    -0.273 OA
BRANCH  42  46
ATOM     46  CA  GLY A   3      23.232  33.842  15.668  0.00  0.00    +0.176 C 
BRANCH  46  49
ATOM     47  C   GLY A   2      24.215  31.664  16.107  0.00  0.00    +0.243 C 
ATOM     48  O   GLY A   2      25.334  32.139  16.289  0.00  0.00    -0.273 OA
ATOM     49  N   GLY A   3      23.144  32.406  15.845  0.00  0.00    -0.295 N 
ATOM     50  H   GLY A   3      22.216  31.943  15.765  0.00  0.00    +0.150 HD
BRANCH  47  51
ATOM     51  CA  GLY A   2      23.972  30.177  16.229  0.00  0.00    +0.176 C 
BRANCH  51  54
ATOM     52  C   VAL A   1      26.005  28.867  16.342  0.00  0.00    +0.238 C 
ATOM     53  O   VAL A   1      26.153  29.125  17.542  0.00  0.00    -0.274 OA
ATOM     54  N   GLY A   2      24.996  29.344  15.617  0.00  0.00    -0.296 N 
ATOM     55  H   GLY A   2      24.939  29.119  14.603  0.00  0.00    +0.150 HD
BRANCH  52  56
ATOM     56  CA  VAL A   1      27.017  27.992  15.604  0.00  0.00    +0.145 C 
BRANCH  56  57
ATOM     57  CB  VAL A   1      26.553  26.526  15.705  0.00  0.00    +0.025 C 
ATOM     58  CG2 VAL A   1      27.680  25.584  15.395  0.00  0.00    +0.002 C 
ATOM     59  CG1 VAL A   1      25.405  26.280  14.769  0.00  0.00    +0.002 C 
ENDBRANCH  56  57
BRANCH  56  60
ATOM     60  N   VAL A   1      28.339  28.185  16.202  0.00  0.00    -0.238 NA
ATOM     61  H   VAL A   1      28.433  28.117  17.236  0.00  0.00    +0.142 HD
ENDBRANCH  56  60
ENDBRANCH  52  56
ENDBRANCH  51  54
ENDBRANCH  47  51
ENDBRANCH  46  49
ENDBRANCH  42  46
ENDBRANCH  41  43
BRANCH  41  62
ATOM     62  CB  SER A   4      23.677  34.344  20.456  0.00  0.00    +0.166 C 
BRANCH  62  63
ATOM     63  OG  SER A   4      22.331  34.762  20.528  0.00  0.00    -0.380 OA
ATOM     64  H   SER A   4      21.930  34.437  21.373  0.00  0.00    +0.211 HD
ENDBRANCH  62  63
ENDBRANCH  41  62
ENDBRANCH  37  41
ENDBRANCH  36  39
BRANCH  36  65
ATOM     65  CB  THR A   5      28.425  32.287  18.213  0.00  0.00    +0.137 C 
ATOM     66  CG2 THR A   5      27.783  31.222  19.071  0.00  0.00    +0.034 C 
BRANCH  65  67
ATOM     67  OG1 THR A   5      28.121  32.041  16.841  0.00  0.00    -0.382 OA
ATOM     68  HG1 THR A   5      27.142  32.094  16.707  0.00  0.00    +0.210 HD
ENDBRANCH  65  67
ENDBRANCH  36  65
ENDBRANCH   1  36
TORSDOF 26
REMARK  Name = ../refined-set-2016/1atr/1atr_pocket.pdb
REMARK  216 active torsions:
REMARK  status: ('A' for Active; 'I' for Inactive)
REMARK    1  A    between atoms: _1  and  _3
REMARK    2  A    between atoms: _3  and  _4
REMARK    3  A    between atoms: _3  and  _6
REMARK    4  A    between atoms: _6  and  _7
REMARK    5  A    between atoms: _10  and  _12
REMARK    6  A    between atoms: _12  and  _13
REMARK    7  A    between atoms: _12  and  _15
REMARK    8  A    between atoms: _15  and  _16
REMARK    9  A    between atoms: _19  and  _21
REMARK   10  A    between atoms: _21  and  _22
REMARK   11  A    between atoms: _24  and  _26
REMARK   12  A    between atoms: _26  and  _27
REMARK   13  A    between atoms: _26  and  _29
REMARK   14  A    between atoms: _29  and  _30
REMARK   15  A    between atoms: _33  and  _35
REMARK   16  A    between atoms: _35  and  _36
REMARK   17  A    between atoms: _35  and  _38
REMARK   18  A    between atoms: _38  and  _39
REMARK   19  A    between atoms: _42  and  _44
REMARK   20  A    between atoms: _44  and  _45
REMARK   21  A    between atoms: _44  and  _47
REMARK   22  A    between atoms: _47  and  _48
REMARK   23  A    between atoms: _53  and  _54
REMARK   24  A    between atoms: _56  and  _58
REMARK   25  A    between atoms: _58  and  _59
REMARK   26  A    between atoms: _58  and  _61
REMARK   27  A    between atoms: _61  and  _62
REMARK   28  A    between atoms: _64  and  _66
REMARK   29  A    between atoms: _66  and  _67
REMARK   30  A    between atoms: _66  and  _69
REMARK   31  A    between atoms: _71  and  _73
REMARK   32  A    between atoms: _73  and  _74
REMARK   33  A    between atoms: _73  and  _76
REMARK   34  A    between atoms: _76  and  _77
REMARK   35  A    between atoms: _80  and  _82
REMARK   36  A    between atoms: _82  and  _83
REMARK   37  A    between atoms: _82  and  _85
REMARK   38  A    between atoms: _85  and  _86
REMARK   39  A    between atoms: _90  and  _91
REMARK   40  A    between atoms: _96  and  _98
REMARK   41  A    between atoms: _98  and  _99
REMARK   42  A    between atoms: _98  and  _101
REMARK   43  A    between atoms: _101  and  _102
REMARK   44  A    between atoms: _104  and  _106
REMARK   45  A    between atoms: _106  and  _107
REMARK   46  A    between atoms: _106  and  _109
REMARK   47  A    between atoms: _109  and  _110
REMARK   48  A    between atoms: _110  and  _111
REMARK   49  A    between atoms: _111  and  _112
REMARK   50  A    between atoms: _112  and  _113
REMARK   51  A    between atoms: _117  and  _119
REMARK   52  A    between atoms: _119  and  _120
REMARK   53  A    between atoms: _119  and  _122
REMARK   54  A    between atoms: _122  and  _123
REMARK   55  A    between atoms: _126  and  _128
REMARK   56  A    between atoms: _128  and  _129
REMARK   57  A    between atoms: _128  and  _131
REMARK   58  A    between atoms: _131  and  _132
REMARK   59  A    between atoms: _132  and  _133
REMARK   60  A    between atoms: _133  and  _134
REMARK   61  A    between atoms: _134  and  _135
REMARK   62  A    between atoms: _139  and  _141
REMARK   63  A    between atoms: _141  and  _142
REMARK   64  A    between atoms: _141  and  _144
REMARK   65  A    between atoms: _144  and  _145
REMARK   66  A    between atoms: _145  and  _146
REMARK   67  A    between atoms: _146  and  _147
REMARK   68  A    between atoms: _156  and  _158
REMARK   69  A    between atoms: _158  and  _159
REMARK   70  A    between atoms: _158  and  _161
REMARK   71  A    between atoms: _161  and  _162
REMARK   72  A    between atoms: _162  and  _163
REMARK   73  A    between atoms: _166  and  _168
REMARK   74  A    between atoms: _168  and  _169
REMARK   75  A    between atoms: _168  and  _171
REMARK   76  A    between atoms: _171  and  _172
REMARK   77  A    between atoms: _175  and  _177
REMARK   78  A    between atoms: _177  and  _178
REMARK   79  A    between atoms: _177  and  _180
REMARK   80  A    between atoms: _180  and  _181
REMARK   81  A    between atoms: _184  and  _186
REMARK   82  A    between atoms: _186  and  _187
REMARK   83  A    between atoms: _189  and  _191
REMARK   84  A    between atoms: _191  and  _192
REMARK   85  A    between atoms: _194  and  _196
REMARK   86  A    between atoms: _196  and  _197
REMARK   87  A    between atoms: _199  and  _201
REMARK   88  A    between atoms: _201  and  _202
REMARK   89  A    between atoms: _201  and  _204
REMARK   90  A    between atoms: _207  and  _209
REMARK   91  A    between atoms: _209  and  _210
REMARK   92  A    between atoms: _209  and  _212
REMARK   93  A    between atoms: _212  and  _213
REMARK   94  A    between atoms: _219  and  _221
REMARK   95  A    between atoms: _221  and  _222
REMARK   96  A    between atoms: _221  and  _224
REMARK   97  A    between atoms: _224  and  _225
REMARK   98  A    between atoms: _228  and  _230
REMARK   99  A    between atoms: _230  and  _231
REMARK  100  A    between atoms: _233  and  _235
REMARK  101  A    between atoms: _235  and  _236
REMARK  102  A    between atoms: _238  and  _240
REMARK  103  A    between atoms: _240  and  _241
REMARK  104  A    between atoms: _240  and  _243
REMARK  105  A    between atoms: _243  and  _244
REMARK  106  A    between atoms: _244  and  _245
REMARK  107  A    between atoms: _248  and  _250
REMARK  108  A    between atoms: _250  and  _251
REMARK  109  A    between atoms: _250  and  _253
REMARK  110  A    between atoms: _253  and  _254
REMARK  111  A    between atoms: _257  and  _259
REMARK  112  A    between atoms: _259  and  _260
REMARK  113  A    between atoms: _259  and  _262
REMARK  114  A    between atoms: _262  and  _263
REMARK  115  A    between atoms: _269  and  _271
REMARK  116  A    between atoms: _271  and  _272
REMARK  117  A    between atoms: _271  and  _274
REMARK  118  A    between atoms: _274  and  _275
REMARK  119  A    between atoms: _278  and  _280
REMARK  120  A    between atoms: _280  and  _281
REMARK  121  A    between atoms: _280  and  _283
REMARK  122  A    between atoms: _285  and  _287
REMARK  123  A    between atoms: _287  and  _288
REMARK  124  A    between atoms: _287  and  _290
REMARK  125  A    between atoms: _290  and  _291
REMARK  126  A    between atoms: _291  and  _292
REMARK  127  A    between atoms: _295  and  _297
REMARK  128  A    between atoms: _297  and  _298
REMARK  129  A    between atoms: _297  and  _300
REMARK  130  A    between atoms: _300  and  _301
REMARK  131  A    between atoms: _301  and  _302
REMARK  132  A    between atoms: _302  and  _303
REMARK  133  A    between atoms: _312  and  _314
REMARK  134  A    between atoms: _314  and  _315
REMARK  135  A    between atoms: _318  and  _320
REMARK  136  A    between atoms: _320  and  _321
REMARK  137  A    between atoms: _320  and  _323
REMARK  138  A    between atoms: _323  and  _324
REMARK  139  A    between atoms: _324  and  _325
REMARK  140  A    between atoms: _325  and  _326
REMARK  141  A    between atoms: _326  and  _327
REMARK  142  A    between atoms: _331  and  _333
REMARK  143  A    between atoms: _333  and  _334
REMARK  144  A    between atoms: _333  and  _336
REMARK  145  A    between atoms: _336  and  _337
REMARK  146  A    between atoms: _337  and  _338
REMARK  147  A    between atoms: _338  and  _339
REMARK  148  A    between atoms: _348  and  _350
REMARK  149  A    between atoms: _350  and  _351
REMARK  150  A    between atoms: _350  and  _353
REMARK  151  A    between atoms: _353  and  _354
REMARK  152  A    between atoms: _357  and  _359
REMARK  153  A    between atoms: _359  and  _360
REMARK  154  A    between atoms: _359  and  _362
REMARK  155  A    between atoms: _362  and  _363
REMARK  156  A    between atoms: _366  and  _368
REMARK  157  A    between atoms: _368  and  _369
REMARK  158  A    between atoms: _368  and  _371
REMARK  159  A    between atoms: _371  and  _372
REMARK  160  A    between atoms: _374  and  _376
REMARK  161  A    between atoms: _376  and  _377
REMARK  162  A    between atoms: _376  and  _379
REMARK  163  A    between atoms: _379  and  _380
REMARK  164  A    between atoms: _382  and  _384
REMARK  165  A    between atoms: _384  and  _385
REMARK  166  A    between atoms: _384  and  _387
REMARK  167  A    between atoms: _387  and  _388
REMARK  168  A    between atoms: _394  and  _396
REMARK  169  A    between atoms: _396  and  _397
REMARK  170  A    between atoms: _396  and  _399
REMARK  171  A    between atoms: _402  and  _404
REMARK  172  A    between atoms: _404  and  _405
REMARK  173  A    between atoms: _407  and  _409
REMARK  174  A    between atoms: _409  and  _410
REMARK  175  A    between atoms: _412  and  _414
REMARK  176  A    between atoms: _414  and  _415
REMARK  177  A    between atoms: _414  and  _417
REMARK  178  A    between atoms: _417  and  _418
REMARK  179  A    between atoms: _420  and  _422
REMARK  180  A    between atoms: _422  and  _423
REMARK  181  A    between atoms: _422  and  _425
REMARK  182  A    between atoms: _425  and  _426
REMARK  183  A    between atoms: _429  and  _431
REMARK  184  A    between atoms: _431  and  _432
REMARK  185  A    between atoms: _431  and  _434
REMARK  186  A    between atoms: _434  and  _435
REMARK  187  A    between atoms: _435  and  _436
REMARK  188  A    between atoms: _436  and  _437
REMARK  189  A    between atoms: _446  and  _448
REMARK  190  A    between atoms: _448  and  _449
REMARK  191  A    between atoms: _448  and  _451
REMARK  192  A    between atoms: _451  and  _452
REMARK  193  A    between atoms: _456  and  _457
REMARK  194  A    between atoms: _462  and  _464
REMARK  195  A    between atoms: _464  and  _465
REMARK  196  A    between atoms: _464  and  _467
REMARK  197  A    between atoms: _467  and  _468
REMARK  198  A    between atoms: _471  and  _473
REMARK  199  A    between atoms: _473  and  _474
REMARK  200  A    between atoms: _473  and  _476
REMARK  201  A    between atoms: _476  and  _477
REMARK  202  A    between atoms: _483  and  _484
REMARK  203  A    between atoms: _489  and  _491
REMARK  204  A    between atoms: _491  and  _492
REMARK  205  A    between atoms: _491  and  _494
REMARK  206  A    between atoms: _494  and  _495
REMARK  207  A    between atoms: _498  and  _500
REMARK  208  A    between atoms: _500  and  _501
REMARK  209  A    between atoms: _500  and  _503
REMARK  210  A    between atoms: _503  and  _504
REMARK  211  A    between atoms: _504  and  _505
REMARK  212  A    between atoms: _508  and  _510
REMARK  213  A    between atoms: _510  and  _511
REMARK  214  A    between atoms: _514  and  _516
REMARK  215  A    between atoms: _516  and  _517
REMARK  216  A    between atoms: _516  and  _519
REMARK                            x       y       z     vdW  Elec       q    Type
REMARK                         _______ _______ _______ _____ _____    ______ ____
ROOT
ATOM      1  CA  ILE A   1      31.340  35.909  23.642  0.00  0.00    +0.133 C 
ENDROOT
BRANCH   1   2
ATOM      2  N   ILE A   1      31.482  37.348  23.480  0.00  0.00    -0.239 NA
ATOM      3  H   ILE A   1      30.819  37.868  22.870  0.00  0.00    +0.142 HD
ENDBRANCH   1   2
BRANCH   1   4
ATOM      4  CB  ILE A   1      29.942  35.391  23.165  0.00  0.00    +0.023 C 
ATOM      5  CG2 ILE A   1      29.869  33.874  23.252  0.00  0.00    +0.002 C 
BRANCH   4   6
ATOM      6  CG1 ILE A   1      28.838  35.961  24.055  0.00  0.00    +0.002 C 
ATOM      7  CD1 ILE A   1      27.472  35.364  23.796  0.00  0.00    +0.000 C 
ENDBRANCH   4   6
ENDBRANCH   1   4
BRANCH   1   8
ATOM      8  C   ILE A   1      32.459  35.218  22.889  0.00  0.00    +0.224 C 
ATOM      9  O   ILE A   1      32.937  34.170  23.311  0.00  0.00    -0.287 OA
ENDBRANCH   1   8
TORSDOF 4
REMARK  Name = ../refined-set-2016/1atr/1atr_pocket.pdb
REMARK  216 active torsions:
REMARK  status: ('A' for Active; 'I' for Inactive)
REMARK    1  A    between atoms: _1  and  _3
REMARK    2  A    between atoms: _3  and  _4
REMARK    3  A    between atoms: _3  and  _6
REMARK    4  A    between atoms: _6  and  _7
REMARK    5  A    between atoms: _10  and  _12
REMARK    6  A    between atoms: _12  and  _13
REMARK    7  A    between atoms: _12  and  _15
REMARK    8  A    between atoms: _15  and  _16
REMARK    9  A    between atoms: _19  and  _21
REMARK   10  A    between atoms: _21  and  _22
REMARK   11  A    between atoms: _24  and  _26
REMARK   12  A    between atoms: _26  and  _27
REMARK   13  A    between atoms: _26  and  _29
REMARK   14  A    between atoms: _29  and  _30
REMARK   15  A    between atoms: _33  and  _35
REMARK   16  A    between atoms: _35  and  _36
REMARK   17  A    between atoms: _35  and  _38
REMARK   18  A    between atoms: _38  and  _39
REMARK   19  A    between atoms: _42  and  _44
REMARK   20  A    between atoms: _44  and  _45
REMARK   21  A    between atoms: _44  and  _47
REMARK   22  A    between atoms: _47  and  _48
REMARK   23  A    between atoms: _53  and  _54
REMARK   24  A    between atoms: _56  and  _58
REMARK   25  A    between atoms: _58  and  _59
REMARK   26  A    between atoms: _58  and  _61
REMARK   27  A    between atoms: _61  and  _62
REMARK   28  A    between atoms: _64  and  _66
REMARK   29  A    between atoms: _66  and  _67
REMARK   30  A    between atoms: _66  and  _69
REMARK   31  A    between atoms: _71  and  _73
REMARK   32  A    between atoms: _73  and  _74
REMARK   33  A    between atoms: _73  and  _76
REMARK   34  A    between atoms: _76  and  _77
REMARK   35  A    between atoms: _80  and  _82
REMARK   36  A    between atoms: _82  and  _83
REMARK   37  A    between atoms: _82  and  _85
REMARK   38  A    between atoms: _85  and  _86
REMARK   39  A    between atoms: _90  and  _91
REMARK   40  A    between atoms: _96  and  _98
REMARK   41  A    between atoms: _98  and  _99
REMARK   42  A    between atoms: _98  and  _101
REMARK   43  A    between atoms: _101  and  _102
REMARK   44  A    between atoms: _104  and  _106
REMARK   45  A    between atoms: _106  and  _107
REMARK   46  A    between atoms: _106  and  _109
REMARK   47  A    between atoms: _109  and  _110
REMARK   48  A    between atoms: _110  and  _111
REMARK   49  A    between atoms: _111  and  _112
REMARK   50  A    between atoms: _112  and  _113
REMARK   51  A    between atoms: _117  and  _119
REMARK   52  A    between atoms: _119  and  _120
REMARK   53  A    between atoms: _119  and  _122
REMARK   54  A    between atoms: _122  and  _123
REMARK   55  A    between atoms: _126  and  _128
REMARK   56  A    between atoms: _128  and  _129
REMARK   57  A    between atoms: _128  and  _131
REMARK   58  A    between atoms: _131  and  _132
REMARK   59  A    between atoms: _132  and  _133
REMARK   60  A    between atoms: _133  and  _134
REMARK   61  A    between atoms: _134  and  _135
REMARK   62  A    between atoms: _139  and  _141
REMARK   63  A    between atoms: _141  and  _142
REMARK   64  A    between atoms: _141  and  _144
REMARK   65  A    between atoms: _144  and  _145
REMARK   66  A    between atoms: _145  and  _146
REMARK   67  A    between atoms: _146  and  _147
REMARK   68  A    between atoms: _156  and  _158
REMARK   69  A    between atoms: _158  and  _159
REMARK   70  A    between atoms: _158  and  _161
REMARK   71  A    between atoms: _161  and  _162
REMARK   72  A    between atoms: _162  and  _163
REMARK   73  A    between atoms: _166  and  _168
REMARK   74  A    between atoms: _168  and  _169
REMARK   75  A    between atoms: _168  and  _171
REMARK   76  A    between atoms: _171  and  _172
REMARK   77  A    between atoms: _175  and  _177
REMARK   78  A    between atoms: _177  and  _178
REMARK   79  A    between atoms: _177  and  _180
REMARK   80  A    between atoms: _180  and  _181
REMARK   81  A    between atoms: _184  and  _186
REMARK   82  A    between atoms: _186  and  _187
REMARK   83  A    between atoms: _189  and  _191
REMARK   84  A    between atoms: _191  and  _192
REMARK   85  A    between atoms: _194  and  _196
REMARK   86  A    between atoms: _196  and  _197
REMARK   87  A    between atoms: _199  and  _201
REMARK   88  A    between atoms: _201  and  _202
REMARK   89  A    between atoms: _201  and  _204
REMARK   90  A    between atoms: _207  and  _209
REMARK   91  A    between atoms: _209  and  _210
REMARK   92  A    between atoms: _209  and  _212
REMARK   93  A    between atoms: _212  and  _213
REMARK   94  A    between atoms: _219  and  _221
REMARK   95  A    between atoms: _221  and  _222
REMARK   96  A    between atoms: _221  and  _224
REMARK   97  A    between atoms: _224  and  _225
REMARK   98  A    between atoms: _228  and  _230
REMARK   99  A    between atoms: _230  and  _231
REMARK  100  A    between atoms: _233  and  _235
REMARK  101  A    between atoms: _235  and  _236
REMARK  102  A    between atoms: _238  and  _240
REMARK  103  A    between atoms: _240  and  _241
REMARK  104  A    between atoms: _240  and  _243
REMARK  105  A    between atoms: _243  and  _244
REMARK  106  A    between atoms: _244  and  _245
REMARK  107  A    between atoms: _248  and  _250
REMARK  108  A    between atoms: _250  and  _251
REMARK  109  A    between atoms: _250  and  _253
REMARK  110  A    between atoms: _253  and  _254
REMARK  111  A    between atoms: _257  and  _259
REMARK  112  A    between atoms: _259  and  _260
REMARK  113  A    between atoms: _259  and  _262
REMARK  114  A    between atoms: _262  and  _263
REMARK  115  A    between atoms: _269  and  _271
REMARK  116  A    between atoms: _271  and  _272
REMARK  117  A    between atoms: _271  and  _274
REMARK  118  A    between atoms: _274  and  _275
REMARK  119  A    between atoms: _278  and  _280
REMARK  120  A    between atoms: _280  and  _281
REMARK  121  A    between atoms: _280  and  _283
REMARK  122  A    between atoms: _285  and  _287
REMARK  123  A    between atoms: _287  and  _288
REMARK  124  A    between atoms: _287  and  _290
REMARK  125  A    between atoms: _290  and  _291
REMARK  126  A    between atoms: _291  and  _292
REMARK  127  A    between atoms: _295  and  _297
REMARK  128  A    between atoms: _297  and  _298
REMARK  129  A    between atoms: _297  and  _300
REMARK  130  A    between atoms: _300  and  _301
REMARK  131  A    between atoms: _301  and  _302
REMARK  132  A    between atoms: _302  and  _303
REMARK  133  A    between atoms: _312  and  _314
REMARK  134  A    between atoms: _314  and  _315
REMARK  135  A    between atoms: _318  and  _320
REMARK  136  A    between atoms: _320  and  _321
REMARK  137  A    between atoms: _320  and  _323
REMARK  138  A    between atoms: _323  and  _324
REMARK  139  A    between atoms: _324  and  _325
REMARK  140  A    between atoms: _325  and  _326
REMARK  141  A    between atoms: _326  and  _327
REMARK  142  A    between atoms: _331  and  _333
REMARK  143  A    between atoms: _333  and  _334
REMARK  144  A    between atoms: _333  and  _336
REMARK  145  A    between atoms: _336  and  _337
REMARK  146  A    between atoms: _337  and  _338
REMARK  147  A    between atoms: _338  and  _339
REMARK  148  A    between atoms: _348  and  _350
REMARK  149  A    between atoms: _350  and  _351
REMARK  150  A    between atoms: _350  and  _353
REMARK  151  A    between atoms: _353  and  _354
REMARK  152  A    between atoms: _357  and  _359
REMARK  153  A    between atoms: _359  and  _360
REMARK  154  A    between atoms: _359  and  _362
REMARK  155  A    between atoms: _362  and  _363
REMARK  156  A    between atoms: _366  and  _368
REMARK  157  A    between atoms: _368  and  _369
REMARK  158  A    between atoms: _368  and  _371
REMARK  159  A    between atoms: _371  and  _372
REMARK  160  A    between atoms: _374  and  _376
REMARK  161  A    between atoms: _376  and  _377
REMARK  162  A    between atoms: _376  and  _379
REMARK  163  A    between atoms: _379  and  _380
REMARK  164  A    between atoms: _382  and  _384
REMARK  165  A    between atoms: _384  and  _385
REMARK  166  A    between atoms: _384  and  _387
REMARK  167  A    between atoms: _387  and  _388
REMARK  168  A    between atoms: _394  and  _396
REMARK  169  A    between atoms: _396  and  _397
REMARK  170  A    between atoms: _396  and  _399
REMARK  171  A    between atoms: _402  and  _404
REMARK  172  A    between atoms: _404  and  _405
REMARK  173  A    between atoms: _407  and  _409
REMARK  174  A    between atoms: _409  and  _410
REMARK  175  A    between atoms: _412  and  _414
REMARK  176  A    between atoms: _414  and  _415
REMARK  177  A    between atoms: _414  and  _417
REMARK  178  A    between atoms: _417  and  _418
REMARK  179  A    between atoms: _420  and  _422
REMARK  180  A    between atoms: _422  and  _423
REMARK  181  A    between atoms: _422  and  _425
REMARK  182  A    between atoms: _425  and  _426
REMARK  183  A    between atoms: _429  and  _431
REMARK  184  A    between atoms: _431  and  _432
REMARK  185  A    between atoms: _431  and  _434
REMARK  186  A    between atoms: _434  and  _435
REMARK  187  A    between atoms: _435  and  _436
REMARK  188  A    between atoms: _436  and  _437
REMARK  189  A    between atoms: _446  and  _448
REMARK  190  A    between atoms: _448  and  _449
REMARK  191  A    between atoms: _448  and  _451
REMARK  192  A    between atoms: _451  and  _452
REMARK  193  A    between atoms: _456  and  _457
REMARK  194  A    between atoms: _462  and  _464
REMARK  195  A    between atoms: _464  and  _465
REMARK  196  A    between atoms: _464  and  _467
REMARK  197  A    between atoms: _467  and  _468
REMARK  198  A    between atoms: _471  and  _473
REMARK  199  A    between atoms: _473  and  _474
REMARK  200  A    between atoms: _473  and  _476
REMARK  201  A    between atoms: _476  and  _477
REMARK  202  A    between atoms: _483  and  _484
REMARK  203  A    between atoms: _489  and  _491
REMARK  204  A    between atoms: _491  and  _492
REMARK  205  A    between atoms: _491  and  _494
REMARK  206  A    between atoms: _494  and  _495
REMARK  207  A    between atoms: _498  and  _500
REMARK  208  A    between atoms: _500  and  _501
REMARK  209  A    between atoms: _500  and  _503
REMARK  210  A    between atoms: _503  and  _504
REMARK  211  A    between atoms: _504  and  _505
REMARK  212  A    between atoms: _508  and  _510
REMARK  213  A    between atoms: _510  and  _511
REMARK  214  A    between atoms: _514  and  _516
REMARK  215  A    between atoms: _516  and  _517
REMARK  216  A    between atoms: _516  and  _519
REMARK                            x       y       z     vdW  Elec       q    Type
REMARK                         _______ _______ _______ _____ _____    ______ ____
ROOT
ATOM      1  C   ASP A   3      22.910  30.344  10.663  0.00  0.00    +0.241 C 
ATOM      2  O   ASP A   3      21.789  29.870  10.493  0.00  0.00    -0.273 OA
ATOM      3  N   GLU A   4      23.885  30.249   9.764  0.00  0.00    -0.297 N 
ATOM      4  H   GLU A   4      24.816  30.657   9.983  0.00  0.00    +0.150 HD
ENDROOT
BRANCH   3   5
ATOM      5  CA  GLU A   4      23.687  29.590   8.482  0.00  0.00    +0.149 C 
BRANCH   5   6
ATOM      6  C   GLU A   4      24.505  28.305   8.375  0.00  0.00    +0.241 C 
ATOM      7  N   ALA A   5      25.337  28.041   9.382  0.00  0.00    -0.297 N 
ATOM      8  H   ALA A   5      25.360  28.695  10.190  0.00  0.00    +0.150 HD
ATOM      9  O   GLU A   4      24.332  27.539   7.428  0.00  0.00    -0.273 OA
BRANCH   7  10
ATOM     10  CA  ALA A   5      26.221  26.872   9.405  0.00  0.00    +0.149 C 
ATOM     11  CB  ALA A   5      27.098  26.903  10.653  0.00  0.00    +0.031 C 
BRANCH  10  12
ATOM     12  C   ALA A   5      25.532  25.526   9.293  0.00  0.00    +0.241 C 
ATOM     13  N   VAL A   6      24.491  25.322  10.097  0.00  0.00    -0.298 N 
ATOM     14  H   VAL A   6      24.200  26.080  10.747  0.00  0.00    +0.150 HD
ATOM     15  O   ALA A   5      25.956  24.671   8.509  0.00  0.00    -0.273 OA
BRANCH  13  16
ATOM     16  CA  VAL A   6      23.744  24.067  10.095  0.00  0.00    +0.137 C 
BRANCH  16  17
ATOM     17  CB  VAL A   6      22.671  24.042  11.216  0.00  0.00    +0.026 C 
ATOM     18  CG2 VAL A   6      23.298  24.335  12.563  0.00  0.00    +0.002 C 
ATOM     19  CG1 VAL A   6      21.975  22.694  11.250  0.00  0.00    +0.002 C 
ENDBRANCH  16  17
BRANCH  16  20
ATOM     20  C   VAL A   6      23.082  23.826   8.731  0.00  0.00    +0.227 C 
ATOM     21  O   VAL A   6      23.187  22.736   8.164  0.00  0.00    -0.286 OA
ENDBRANCH  16  20
ENDBRANCH  13  16
ENDBRANCH  10  12
ENDBRANCH   7  10
ENDBRANCH   5   6
BRANCH   5  22
ATOM     22  CB  GLU A   4      24.062  30.540   7.344  0.00  0.00    +0.041 C 
BRANCH  22  23
ATOM     23  CG  GLU A   4      23.378  31.903   7.437  0.00  0.00    +0.116 C 
BRANCH  23  24
ATOM     24  CD  GLU A   4      23.821  32.878   6.366  0.00  0.00    +0.365 C 
ATOM     25  OE2 GLU A   4      23.638  34.097   6.550  0.00  0.00    -0.246 OA
ATOM     26  OE1 GLU A   4      24.353  32.451   5.325  0.00  0.00    -0.246 OA
ENDBRANCH  23  24
ENDBRANCH  22  23
ENDBRANCH   5  22
ENDBRANCH   3   5
BRANCH   1  27
ATOM     27  CA  ASP A   3      23.264  31.051  11.963  0.00  0.00    +0.160 C 
BRANCH  27  30
ATOM     28  C   PRO A   2      25.562  30.413  12.486  0.00  0.00    +0.241 C 
ATOM     29  O   PRO A   2      25.210  29.290  12.843  0.00  0.00    -0.273 OA
ATOM     30  N   ASP A   3      24.697  31.336  12.075  0.00  0.00    -0.297 N 
ATOM     31  H   ASP A   3      25.046  32.284  11.827  0.00  0.00    +0.150 HD
BRANCH  28  34
ATOM     32  C   ASN A   1      27.274  31.722  10.256  0.00  0.00    +0.242 C 
ATOM     33  N   PRO A   2      27.456  31.836  11.581  0.00  0.00    -0.272 N 
ATOM     34  CA  PRO A   2      27.036  30.825  12.557  0.00  0.00    +0.152 C 
ATOM     35  CB  PRO A   2      27.369  31.489  13.898  0.00  0.00    +0.031 C 
ATOM     36  CG  PRO A   2      28.470  32.419  13.573  0.00  0.00    +0.024 C 
ATOM     37  CD  PRO A   2      28.006  33.012  12.268  0.00  0.00    +0.094 C 
ATOM     38  O   ASN A   1      26.744  30.741   9.751  0.00  0.00    -0.273 OA
BRANCH  32  39
ATOM     39  CA  ASN A   1      27.782  32.855   9.379  0.00  0.00    +0.154 C 
BRANCH  39  40
ATOM     40  N   ASN A   1      28.706  32.274   8.390  0.00  0.00    -0.238 NA
ATOM     41  H   ASN A   1      28.627  32.561   7.394  0.00  0.00    +0.142 HD
ENDBRANCH  39  40
BRANCH  39  42
ATOM     42  CB  ASN A   1      26.600  33.545   8.694  0.00  0.00    +0.111 C 
BRANCH  42  43
ATOM     43  CG  ASN A   1      26.929  34.944   8.223  0.00  0.00    +0.221 C 
ATOM     44  OD1 ASN A   1      27.603  35.699   8.922  0.00  0.00    -0.275 OA
ATOM     45  ND2 ASN A   1      26.424  35.314   7.056  0.00  0.00    -0.329 N 
ATOM     46 HD21 ASN A   1      26.592  36.276   6.698  0.00  0.00    +0.145 HD
ATOM     47 HD22 ASN A   1      25.859  34.643   6.497  0.00  0.00    +0.145 HD
ENDBRANCH  42  43
ENDBRANCH  39  42
ENDBRANCH  32  39
ENDBRANCH  28  34
ENDBRANCH  27  30
BRANCH  27  48
ATOM     48  CB  ASP A   3      22.441  32.335  12.109  0.00  0.00    +0.143 C 
BRANCH  48  49
ATOM     49  CG  ASP A   3      22.990  33.487  11.298  0.00  0.00    +0.367 C 
ATOM     50  OD2 ASP A   3      22.552  34.616  11.537  0.00  0.00    -0.246 OA
ATOM     51  OD1 ASP A   3      23.885  33.302  10.450  0.00  0.00    -0.246 OA
ENDBRANCH  48  49
ENDBRANCH  27  48
ENDBRANCH   1  27
TORSDOF 19
REMARK  Name = ../refined-set-2016/1atr/1atr_pocket.pdb
REMARK  216 active torsions:
REMARK  status: ('A' for Active; 'I' for Inactive)
REMARK    1  A    between atoms: _1  and  _3
REMARK    2  A    between atoms: _3  and  _4
REMARK    3  A    between atoms: _3  and  _6
REMARK    4  A    between atoms: _6  and  _7
REMARK    5  A    between atoms: _10  and  _12
REMARK    6  A    between atoms: _12  and  _13
REMARK    7  A    between atoms: _12  and  _15
REMARK    8  A    between atoms: _15  and  _16
REMARK    9  A    between atoms: _19  and  _21
REMARK   10  A    between atoms: _21  and  _22
REMARK   11  A    between atoms: _24  and  _26
REMARK   12  A    between atoms: _26  and  _27
REMARK   13  A    between atoms: _26  and  _29
REMARK   14  A    between atoms: _29  and  _30
REMARK   15  A    between atoms: _33  and  _35
REMARK   16  A    between atoms: _35  and  _36
REMARK   17  A    between atoms: _35  and  _38
REMARK   18  A    between atoms: _38  and  _39
REMARK   19  A    between atoms: _42  and  _44
REMARK   20  A    between atoms: _44  and  _45
REMARK   21  A    between atoms: _44  and  _47
REMARK   22  A    between atoms: _47  and  _48
REMARK   23  A    between atoms: _53  and  _54
REMARK   24  A    between atoms: _56  and  _58
REMARK   25  A    between atoms: _58  and  _59
REMARK   26  A    between atoms: _58  and  _61
REMARK   27  A    between atoms: _61  and  _62
REMARK   28  A    between atoms: _64  and  _66
REMARK   29  A    between atoms: _66  and  _67
REMARK   30  A    between atoms: _66  and  _69
REMARK   31  A    between atoms: _71  and  _73
REMARK   32  A    between atoms: _73  and  _74
REMARK   33  A    between atoms: _73  and  _76
REMARK   34  A    between atoms: _76  and  _77
REMARK   35  A    between atoms: _80  and  _82
REMARK   36  A    between atoms: _82  and  _83
REMARK   37  A    between atoms: _82  and  _85
REMARK   38  A    between atoms: _85  and  _86
REMARK   39  A    between atoms: _90  and  _91
REMARK   40  A    between atoms: _96  and  _98
REMARK   41  A    between atoms: _98  and  _99
REMARK   42  A    between atoms: _98  and  _101
REMARK   43  A    between atoms: _101  and  _102
REMARK   44  A    between atoms: _104  and  _106
REMARK   45  A    between atoms: _106  and  _107
REMARK   46  A    between atoms: _106  and  _109
REMARK   47  A    between atoms: _109  and  _110
REMARK   48  A    between atoms: _110  and  _111
REMARK   49  A    between atoms: _111  and  _112
REMARK   50  A    between atoms: _112  and  _113
REMARK   51  A    between atoms: _117  and  _119
REMARK   52  A    between atoms: _119  and  _120
REMARK   53  A    between atoms: _119  and  _122
REMARK   54  A    between atoms: _122  and  _123
REMARK   55  A    between atoms: _126  and  _128
REMARK   56  A    between atoms: _128  and  _129
REMARK   57  A    between atoms: _128  and  _131
REMARK   58  A    between atoms: _131  and  _132
REMARK   59  A    between atoms: _132  and  _133
REMARK   60  A    between atoms: _133  and  _134
REMARK   61  A    between atoms: _134  and  _135
REMARK   62  A    between atoms: _139  and  _141
REMARK   63  A    between atoms: _141  and  _142
REMARK   64  A    between atoms: _141  and  _144
REMARK   65  A    between atoms: _144  and  _145
REMARK   66  A    between atoms: _145  and  _146
REMARK   67  A    between atoms: _146  and  _147
REMARK   68  A    between atoms: _156  and  _158
REMARK   69  A    between atoms: _158  and  _159
REMARK   70  A    between atoms: _158  and  _161
REMARK   71  A    between atoms: _161  and  _162
REMARK   72  A    between atoms: _162  and  _163
REMARK   73  A    between atoms: _166  and  _168
REMARK   74  A    between atoms: _168  and  _169
REMARK   75  A    between atoms: _168  and  _171
REMARK   76  A    between atoms: _171  and  _172
REMARK   77  A    between atoms: _175  and  _177
REMARK   78  A    between atoms: _177  and  _178
REMARK   79  A    between atoms: _177  and  _180
REMARK   80  A    between atoms: _180  and  _181
REMARK   81  A    between atoms: _184  and  _186
REMARK   82  A    between atoms: _186  and  _187
REMARK   83  A    between atoms: _189  and  _191
REMARK   84  A    between atoms: _191  and  _192
REMARK   85  A    between atoms: _194  and  _196
REMARK   86  A    between atoms: _196  and  _197
REMARK   87  A    between atoms: _199  and  _201
REMARK   88  A    between atoms: _201  and  _202
REMARK   89  A    between atoms: _201  and  _204
REMARK   90  A    between atoms: _207  and  _209
REMARK   91  A    between atoms: _209  and  _210
REMARK   92  A    between atoms: _209  and  _212
REMARK   93  A    between atoms: _212  and  _213
REMARK   94  A    between atoms: _219  and  _221
REMARK   95  A    between atoms: _221  and  _222
REMARK   96  A    between atoms: _221  and  _224
REMARK   97  A    between atoms: _224  and  _225
REMARK   98  A    between atoms: _228  and  _230
REMARK   99  A    between atoms: _230  and  _231
REMARK  100  A    between atoms: _233  and  _235
REMARK  101  A    between atoms: _235  and  _236
REMARK  102  A    between atoms: _238  and  _240
REMARK  103  A    between atoms: _240  and  _241
REMARK  104  A    between atoms: _240  and  _243
REMARK  105  A    between atoms: _243  and  _244
REMARK  106  A    between atoms: _244  and  _245
REMARK  107  A    between atoms: _248  and  _250
REMARK  108  A    between atoms: _250  and  _251
REMARK  109  A    between atoms: _250  and  _253
REMARK  110  A    between atoms: _253  and  _254
REMARK  111  A    between atoms: _257  and  _259
REMARK  112  A    between atoms: _259  and  _260
REMARK  113  A    between atoms: _259  and  _262
REMARK  114  A    between atoms: _262  and  _263
REMARK  115  A    between atoms: _269  and  _271
REMARK  116  A    between atoms: _271  and  _272
REMARK  117  A    between atoms: _271  and  _274
REMARK  118  A    between atoms: _274  and  _275
REMARK  119  A    between atoms: _278  and  _280
REMARK  120  A    between atoms: _280  and  _281
REMARK  121  A    between atoms: _280  and  _283
REMARK  122  A    between atoms: _285  and  _287
REMARK  123  A    between atoms: _287  and  _288
REMARK  124  A    between atoms: _287  and  _290
REMARK  125  A    between atoms: _290  and  _291
REMARK  126  A    between atoms: _291  and  _292
REMARK  127  A    between atoms: _295  and  _297
REMARK  128  A    between atoms: _297  and  _298
REMARK  129  A    between atoms: _297  and  _300
REMARK  130  A    between atoms: _300  and  _301
REMARK  131  A    between atoms: _301  and  _302
REMARK  132  A    between atoms: _302  and  _303
REMARK  133  A    between atoms: _312  and  _314
REMARK  134  A    between atoms: _314  and  _315
REMARK  135  A    between atoms: _318  and  _320
REMARK  136  A    between atoms: _320  and  _321
REMARK  137  A    between atoms: _320  and  _323
REMARK  138  A    between atoms: _323  and  _324
REMARK  139  A    between atoms: _324  and  _325
REMARK  140  A    between atoms: _325  and  _326
REMARK  141  A    between atoms: _326  and  _327
REMARK  142  A    between atoms: _331  and  _333
REMARK  143  A    between atoms: _333  and  _334
REMARK  144  A    between atoms: _333  and  _336
REMARK  145  A    between atoms: _336  and  _337
REMARK  146  A    between atoms: _337  and  _338
REMARK  147  A    between atoms: _338  and  _339
REMARK  148  A    between atoms: _348  and  _350
REMARK  149  A    between atoms: _350  and  _351
REMARK  150  A    between atoms: _350  and  _353
REMARK  151  A    between atoms: _353  and  _354
REMARK  152  A    between atoms: _357  and  _359
REMARK  153  A    between atoms: _359  and  _360
REMARK  154  A    between atoms: _359  and  _362
REMARK  155  A    between atoms: _362  and  _363
REMARK  156  A    between atoms: _366  and  _368
REMARK  157  A    between atoms: _368  and  _369
REMARK  158  A    between atoms: _368  and  _371
REMARK  159  A    between atoms: _371  and  _372
REMARK  160  A    between atoms: _374  and  _376
REMARK  161  A    between atoms: _376  and  _377
REMARK  162  A    between atoms: _376  and  _379
REMARK  163  A    between atoms: _379  and  _380
REMARK  164  A    between atoms: _382  and  _384
REMARK  165  A    between atoms: _384  and  _385
REMARK  166  A    between atoms: _384  and  _387
REMARK  167  A    between atoms: _387  and  _388
REMARK  168  A    between atoms: _394  and  _396
REMARK  169  A    between atoms: _396  and  _397
REMARK  170  A    between atoms: _396  and  _399
REMARK  171  A    between atoms: _402  and  _404
REMARK  172  A    between atoms: _404  and  _405
REMARK  173  A    between atoms: _407  and  _409
REMARK  174  A    between atoms: _409  and  _410
REMARK  175  A    between atoms: _412  and  _414
REMARK  176  A    between atoms: _414  and  _415
REMARK  177  A    between atoms: _414  and  _417
REMARK  178  A    between atoms: _417  and  _418
REMARK  179  A    between atoms: _420  and  _422
REMARK  180  A    between atoms: _422  and  _423
REMARK  181  A    between atoms: _422  and  _425
REMARK  182  A    between atoms: _425  and  _426
REMARK  183  A    between atoms: _429  and  _431
REMARK  184  A    between atoms: _431  and  _432
REMARK  185  A    between atoms: _431  and  _434
REMARK  186  A    between atoms: _434  and  _435
REMARK  187  A    between atoms: _435  and  _436
REMARK  188  A    between atoms: _436  and  _437
REMARK  189  A    between atoms: _446  and  _448
REMARK  190  A    between atoms: _448  and  _449
REMARK  191  A    between atoms: _448  and  _451
REMARK  192  A    between atoms: _451  and  _452
REMARK  193  A    between atoms: _456  and  _457
REMARK  194  A    between atoms: _462  and  _464
REMARK  195  A    between atoms: _464  and  _465
REMARK  196  A    between atoms: _464  and  _467
REMARK  197  A    between atoms: _467  and  _468
REMARK  198  A    between atoms: _471  and  _473
REMARK  199  A    between atoms: _473  and  _474
REMARK  200  A    between atoms: _473  and  _476
REMARK  201  A    between atoms: _476  and  _477
REMARK  202  A    between atoms: _483  and  _484
REMARK  203  A    between atoms: _489  and  _491
REMARK  204  A    between atoms: _491  and  _492
REMARK  205  A    between atoms: _491  and  _494
REMARK  206  A    between atoms: _494  and  _495
REMARK  207  A    between atoms: _498  and  _500
REMARK  208  A    between atoms: _500  and  _501
REMARK  209  A    between atoms: _500  and  _503
REMARK  210  A    between atoms: _503  and  _504
REMARK  211  A    between atoms: _504  and  _505
REMARK  212  A    between atoms: _508  and  _510
REMARK  213  A    between atoms: _510  and  _511
REMARK  214  A    between atoms: _514  and  _516
REMARK  215  A    between atoms: _516  and  _517
REMARK  216  A    between atoms: _516  and  _519
REMARK                            x       y       z     vdW  Elec       q    Type
REMARK                         _______ _______ _______ _____ _____    ______ ____
ROOT
ATOM      1 MG   UNL     1      20.414  28.113  14.934  0.00  0.00    +0.000 Mg
ATOM      2  O   UNL     1      19.752  26.199  14.731  0.00  0.00    +0.000 OA
ATOM      3  O   UNL     1      21.789  27.753  13.476  0.00  0.00    +0.000 OA
ENDROOT
TORSDOF 0
REMARK  Name = ../refined-set-2016/1atr/1atr_pocket.pdb
REMARK  216 active torsions:
REMARK  status: ('A' for Active; 'I' for Inactive)
REMARK    1  A    between atoms: _1  and  _3
REMARK    2  A    between atoms: _3  and  _4
REMARK    3  A    between atoms: _3  and  _6
REMARK    4  A    between atoms: _6  and  _7
REMARK    5  A    between atoms: _10  and  _12
REMARK    6  A    between atoms: _12  and  _13
REMARK    7  A    between atoms: _12  and  _15
REMARK    8  A    between atoms: _15  and  _16
REMARK    9  A    between atoms: _19  and  _21
REMARK   10  A    between atoms: _21  and  _22
REMARK   11  A    between atoms: _24  and  _26
REMARK   12  A    between atoms: _26  and  _27
REMARK   13  A    between atoms: _26  and  _29
REMARK   14  A    between atoms: _29  and  _30
REMARK   15  A    between atoms: _33  and  _35
REMARK   16  A    between atoms: _35  and  _36
REMARK   17  A    between atoms: _35  and  _38
REMARK   18  A    between atoms: _38  and  _39
REMARK   19  A    between atoms: _42  and  _44
REMARK   20  A    between atoms: _44  and  _45
REMARK   21  A    between atoms: _44  and  _47
REMARK   22  A    between atoms: _47  and  _48
REMARK   23  A    between atoms: _53  and  _54
REMARK   24  A    between atoms: _56  and  _58
REMARK   25  A    between atoms: _58  and  _59
REMARK   26  A    between atoms: _58  and  _61
REMARK   27  A    between atoms: _61  and  _62
REMARK   28  A    between atoms: _64  and  _66
REMARK   29  A    between atoms: _66  and  _67
REMARK   30  A    between atoms: _66  and  _69
REMARK   31  A    between atoms: _71  and  _73
REMARK   32  A    between atoms: _73  and  _74
REMARK   33  A    between atoms: _73  and  _76
REMARK   34  A    between atoms: _76  and  _77
REMARK   35  A    between atoms: _80  and  _82
REMARK   36  A    between atoms: _82  and  _83
REMARK   37  A    between atoms: _82  and  _85
REMARK   38  A    between atoms: _85  and  _86
REMARK   39  A    between atoms: _90  and  _91
REMARK   40  A    between atoms: _96  and  _98
REMARK   41  A    between atoms: _98  and  _99
REMARK   42  A    between atoms: _98  and  _101
REMARK   43  A    between atoms: _101  and  _102
REMARK   44  A    between atoms: _104  and  _106
REMARK   45  A    between atoms: _106  and  _107
REMARK   46  A    between atoms: _106  and  _109
REMARK   47  A    between atoms: _109  and  _110
REMARK   48  A    between atoms: _110  and  _111
REMARK   49  A    between atoms: _111  and  _112
REMARK   50  A    between atoms: _112  and  _113
REMARK   51  A    between atoms: _117  and  _119
REMARK   52  A    between atoms: _119  and  _120
REMARK   53  A    between atoms: _119  and  _122
REMARK   54  A    between atoms: _122  and  _123
REMARK   55  A    between atoms: _126  and  _128
REMARK   56  A    between atoms: _128  and  _129
REMARK   57  A    between atoms: _128  and  _131
REMARK   58  A    between atoms: _131  and  _132
REMARK   59  A    between atoms: _132  and  _133
REMARK   60  A    between atoms: _133  and  _134
REMARK   61  A    between atoms: _134  and  _135
REMARK   62  A    between atoms: _139  and  _141
REMARK   63  A    between atoms: _141  and  _142
REMARK   64  A    between atoms: _141  and  _144
REMARK   65  A    between atoms: _144  and  _145
REMARK   66  A    between atoms: _145  and  _146
REMARK   67  A    between atoms: _146  and  _147
REMARK   68  A    between atoms: _156  and  _158
REMARK   69  A    between atoms: _158  and  _159
REMARK   70  A    between atoms: _158  and  _161
REMARK   71  A    between atoms: _161  and  _162
REMARK   72  A    between atoms: _162  and  _163
REMARK   73  A    between atoms: _166  and  _168
REMARK   74  A    between atoms: _168  and  _169
REMARK   75  A    between atoms: _168  and  _171
REMARK   76  A    between atoms: _171  and  _172
REMARK   77  A    between atoms: _175  and  _177
REMARK   78  A    between atoms: _177  and  _178
REMARK   79  A    between atoms: _177  and  _180
REMARK   80  A    between atoms: _180  and  _181
REMARK   81  A    between atoms: _184  and  _186
REMARK   82  A    between atoms: _186  and  _187
REMARK   83  A    between atoms: _189  and  _191
REMARK   84  A    between atoms: _191  and  _192
REMARK   85  A    between atoms: _194  and  _196
REMARK   86  A    between atoms: _196  and  _197
REMARK   87  A    between atoms: _199  and  _201
REMARK   88  A    between atoms: _201  and  _202
REMARK   89  A    between atoms: _201  and  _204
REMARK   90  A    between atoms: _207  and  _209
REMARK   91  A    between atoms: _209  and  _210
REMARK   92  A    between atoms: _209  and  _212
REMARK   93  A    between atoms: _212  and  _213
REMARK   94  A    between atoms: _219  and  _221
REMARK   95  A    between atoms: _221  and  _222
REMARK   96  A    between atoms: _221  and  _224
REMARK   97  A    between atoms: _224  and  _225
REMARK   98  A    between atoms: _228  and  _230
REMARK   99  A    between atoms: _230  and  _231
REMARK  100  A    between atoms: _233  and  _235
REMARK  101  A    between atoms: _235  and  _236
REMARK  102  A    between atoms: _238  and  _240
REMARK  103  A    between atoms: _240  and  _241
REMARK  104  A    between atoms: _240  and  _243
REMARK  105  A    between atoms: _243  and  _244
REMARK  106  A    between atoms: _244  and  _245
REMARK  107  A    between atoms: _248  and  _250
REMARK  108  A    between atoms: _250  and  _251
REMARK  109  A    between atoms: _250  and  _253
REMARK  110  A    between atoms: _253  and  _254
REMARK  111  A    between atoms: _257  and  _259
REMARK  112  A    between atoms: _259  and  _260
REMARK  113  A    between atoms: _259  and  _262
REMARK  114  A    between atoms: _262  and  _263
REMARK  115  A    between atoms: _269  and  _271
REMARK  116  A    between atoms: _271  and  _272
REMARK  117  A    between atoms: _271  and  _274
REMARK  118  A    between atoms: _274  and  _275
REMARK  119  A    between atoms: _278  and  _280
REMARK  120  A    between atoms: _280  and  _281
REMARK  121  A    between atoms: _280  and  _283
REMARK  122  A    between atoms: _285  and  _287
REMARK  123  A    between atoms: _287  and  _288
REMARK  124  A    between atoms: _287  and  _290
REMARK  125  A    between atoms: _290  and  _291
REMARK  126  A    between atoms: _291  and  _292
REMARK  127  A    between atoms: _295  and  _297
REMARK  128  A    between atoms: _297  and  _298
REMARK  129  A    between atoms: _297  and  _300
REMARK  130  A    between atoms: _300  and  _301
REMARK  131  A    between atoms: _301  and  _302
REMARK  132  A    between atoms: _302  and  _303
REMARK  133  A    between atoms: _312  and  _314
REMARK  134  A    between atoms: _314  and  _315
REMARK  135  A    between atoms: _318  and  _320
REMARK  136  A    between atoms: _320  and  _321
REMARK  137  A    between atoms: _320  and  _323
REMARK  138  A    between atoms: _323  and  _324
REMARK  139  A    between atoms: _324  and  _325
REMARK  140  A    between atoms: _325  and  _326
REMARK  141  A    between atoms: _326  and  _327
REMARK  142  A    between atoms: _331  and  _333
REMARK  143  A    between atoms: _333  and  _334
REMARK  144  A    between atoms: _333  and  _336
REMARK  145  A    between atoms: _336  and  _337
REMARK  146  A    between atoms: _337  and  _338
REMARK  147  A    between atoms: _338  and  _339
REMARK  148  A    between atoms: _348  and  _350
REMARK  149  A    between atoms: _350  and  _351
REMARK  150  A    between atoms: _350  and  _353
REMARK  151  A    between atoms: _353  and  _354
REMARK  152  A    between atoms: _357  and  _359
REMARK  153  A    between atoms: _359  and  _360
REMARK  154  A    between atoms: _359  and  _362
REMARK  155  A    between atoms: _362  and  _363
REMARK  156  A    between atoms: _366  and  _368
REMARK  157  A    between atoms: _368  and  _369
REMARK  158  A    between atoms: _368  and  _371
REMARK  159  A    between atoms: _371  and  _372
REMARK  160  A    between atoms: _374  and  _376
REMARK  161  A    between atoms: _376  and  _377
REMARK  162  A    between atoms: _376  and  _379
REMARK  163  A    between atoms: _379  and  _380
REMARK  164  A    between atoms: _382  and  _384
REMARK  165  A    between atoms: _384  and  _385
REMARK  166  A    between atoms: _384  and  _387
REMARK  167  A    between atoms: _387  and  _388
REMARK  168  A    between atoms: _394  and  _396
REMARK  169  A    between atoms: _396  and  _397
REMARK  170  A    between atoms: _396  and  _399
REMARK  171  A    between atoms: _402  and  _404
REMARK  172  A    between atoms: _404  and  _405
REMARK  173  A    between atoms: _407  and  _409
REMARK  174  A    between atoms: _409  and  _410
REMARK  175  A    between atoms: _412  and  _414
REMARK  176  A    between atoms: _414  and  _415
REMARK  177  A    between atoms: _414  and  _417
REMARK  178  A    between atoms: _417  and  _418
REMARK  179  A    between atoms: _420  and  _422
REMARK  180  A    between atoms: _422  and  _423
REMARK  181  A    between atoms: _422  and  _425
REMARK  182  A    between atoms: _425  and  _426
REMARK  183  A    between atoms: _429  and  _431
REMARK  184  A    between atoms: _431  and  _432
REMARK  185  A    between atoms: _431  and  _434
REMARK  186  A    between atoms: _434  and  _435
REMARK  187  A    between atoms: _435  and  _436
REMARK  188  A    between atoms: _436  and  _437
REMARK  189  A    between atoms: _446  and  _448
REMARK  190  A    between atoms: _448  and  _449
REMARK  191  A    between atoms: _448  and  _451
REMARK  192  A    between atoms: _451  and  _452
REMARK  193  A    between atoms: _456  and  _457
REMARK  194  A    between atoms: _462  and  _464
REMARK  195  A    between atoms: _464  and  _465
REMARK  196  A    between atoms: _464  and  _467
REMARK  197  A    between atoms: _467  and  _468
REMARK  198  A    between atoms: _471  and  _473
REMARK  199  A    between atoms: _473  and  _474
REMARK  200  A    between atoms: _473  and  _476
REMARK  201  A    between atoms: _476  and  _477
REMARK  202  A    between atoms: _483  and  _484
REMARK  203  A    between atoms: _489  and  _491
REMARK  204  A    between atoms: _491  and  _492
REMARK  205  A    between atoms: _491  and  _494
REMARK  206  A    between atoms: _494  and  _495
REMARK  207  A    between atoms: _498  and  _500
REMARK  208  A    between atoms: _500  and  _501
REMARK  209  A    between atoms: _500  and  _503
REMARK  210  A    between atoms: _503  and  _504
REMARK  211  A    between atoms: _504  and  _505
REMARK  212  A    between atoms: _508  and  _510
REMARK  213  A    between atoms: _510  and  _511
REMARK  214  A    between atoms: _514  and  _516
REMARK  215  A    between atoms: _516  and  _517
REMARK  216  A    between atoms: _516  and  _519
REMARK                            x       y       z     vdW  Elec       q    Type
REMARK                         _______ _______ _______ _____ _____    ______ ____
ROOT
ATOM      1  O   HOH     1      17.863  22.146  12.798  0.00  0.00    +0.000 OA
ENDROOT
TORSDOF 0
REMARK  Name = ../refined-set-2016/1atr/1atr_pocket.pdb
REMARK  216 active torsions:
REMARK  status: ('A' for Active; 'I' for Inactive)
REMARK    1  A    between atoms: _1  and  _3
REMARK    2  A    between atoms: _3  and  _4
REMARK    3  A    between atoms: _3  and  _6
REMARK    4  A    between atoms: _6  and  _7
REMARK    5  A    between atoms: _10  and  _12
REMARK    6  A    between atoms: _12  and  _13
REMARK    7  A    between atoms: _12  and  _15
REMARK    8  A    between atoms: _15  and  _16
REMARK    9  A    between atoms: _19  and  _21
REMARK   10  A    between atoms: _21  and  _22
REMARK   11  A    between atoms: _24  and  _26
REMARK   12  A    between atoms: _26  and  _27
REMARK   13  A    between atoms: _26  and  _29
REMARK   14  A    between atoms: _29  and  _30
REMARK   15  A    between atoms: _33  and  _35
REMARK   16  A    between atoms: _35  and  _36
REMARK   17  A    between atoms: _35  and  _38
REMARK   18  A    between atoms: _38  and  _39
REMARK   19  A    between atoms: _42  and  _44
REMARK   20  A    between atoms: _44  and  _45
REMARK   21  A    between atoms: _44  and  _47
REMARK   22  A    between atoms: _47  and  _48
REMARK   23  A    between atoms: _53  and  _54
REMARK   24  A    between atoms: _56  and  _58
REMARK   25  A    between atoms: _58  and  _59
REMARK   26  A    between atoms: _58  and  _61
REMARK   27  A    between atoms: _61  and  _62
REMARK   28  A    between atoms: _64  and  _66
REMARK   29  A    between atoms: _66  and  _67
REMARK   30  A    between atoms: _66  and  _69
REMARK   31  A    between atoms: _71  and  _73
REMARK   32  A    between atoms: _73  and  _74
REMARK   33  A    between atoms: _73  and  _76
REMARK   34  A    between atoms: _76  and  _77
REMARK   35  A    between atoms: _80  and  _82
REMARK   36  A    between atoms: _82  and  _83
REMARK   37  A    between atoms: _82  and  _85
REMARK   38  A    between atoms: _85  and  _86
REMARK   39  A    between atoms: _90  and  _91
REMARK   40  A    between atoms: _96  and  _98
REMARK   41  A    between atoms: _98  and  _99
REMARK   42  A    between atoms: _98  and  _101
REMARK   43  A    between atoms: _101  and  _102
REMARK   44  A    between atoms: _104  and  _106
REMARK   45  A    between atoms: _106  and  _107
REMARK   46  A    between atoms: _106  and  _109
REMARK   47  A    between atoms: _109  and  _110
REMARK   48  A    between atoms: _110  and  _111
REMARK   49  A    between atoms: _111  and  _112
REMARK   50  A    between atoms: _112  and  _113
REMARK   51  A    between atoms: _117  and  _119
REMARK   52  A    between atoms: _119  and  _120
REMARK   53  A    between atoms: _119  and  _122
REMARK   54  A    between atoms: _122  and  _123
REMARK   55  A    between atoms: _126  and  _128
REMARK   56  A    between atoms: _128  and  _129
REMARK   57  A    between atoms: _128  and  _131
REMARK   58  A    between atoms: _131  and  _132
REMARK   59  A    between atoms: _132  and  _133
REMARK   60  A    between atoms: _133  and  _134
REMARK   61  A    between atoms: _134  and  _135
REMARK   62  A    between atoms: _139  and  _141
REMARK   63  A    between atoms: _141  and  _142
REMARK   64  A    between atoms: _141  and  _144
REMARK   65  A    between atoms: _144  and  _145
REMARK   66  A    between atoms: _145  and  _146
REMARK   67  A    between atoms: _146  and  _147
REMARK   68  A    between atoms: _156  and  _158
REMARK   69  A    between atoms: _158  and  _159
REMARK   70  A    between atoms: _158  and  _161
REMARK   71  A    between atoms: _161  and  _162
REMARK   72  A    between atoms: _162  and  _163
REMARK   73  A    between atoms: _166  and  _168
REMARK   74  A    between atoms: _168  and  _169
REMARK   75  A    between atoms: _168  and  _171
REMARK   76  A    between atoms: _171  and  _172
REMARK   77  A    between atoms: _175  and  _177
REMARK   78  A    between atoms: _177  and  _178
REMARK   79  A    between atoms: _177  and  _180
REMARK   80  A    between atoms: _180  and  _181
REMARK   81  A    between atoms: _184  and  _186
REMARK   82  A    between atoms: _186  and  _187
REMARK   83  A    between atoms: _189  and  _191
REMARK   84  A    between atoms: _191  and  _192
REMARK   85  A    between atoms: _194  and  _196
REMARK   86  A    between atoms: _196  and  _197
REMARK   87  A    between atoms: _199  and  _201
REMARK   88  A    between atoms: _201  and  _202
REMARK   89  A    between atoms: _201  and  _204
REMARK   90  A    between atoms: _207  and  _209
REMARK   91  A    between atoms: _209  and  _210
REMARK   92  A    between atoms: _209  and  _212
REMARK   93  A    between atoms: _212  and  _213
REMARK   94  A    between atoms: _219  and  _221
REMARK   95  A    between atoms: _221  and  _222
REMARK   96  A    between atoms: _221  and  _224
REMARK   97  A    between atoms: _224  and  _225
REMARK   98  A    between atoms: _228  and  _230
REMARK   99  A    between atoms: _230  and  _231
REMARK  100  A    between atoms: _233  and  _235
REMARK  101  A    between atoms: _235  and  _236
REMARK  102  A    between atoms: _238  and  _240
REMARK  103  A    between atoms: _240  and  _241
REMARK  104  A    between atoms: _240  and  _243
REMARK  105  A    between atoms: _243  and  _244
REMARK  106  A    between atoms: _244  and  _245
REMARK  107  A    between atoms: _248  and  _250
REMARK  108  A    between atoms: _250  and  _251
REMARK  109  A    between atoms: _250  and  _253
REMARK  110  A    between atoms: _253  and  _254
REMARK  111  A    between atoms: _257  and  _259
REMARK  112  A    between atoms: _259  and  _260
REMARK  113  A    between atoms: _259  and  _262
REMARK  114  A    between atoms: _262  and  _263
REMARK  115  A    between atoms: _269  and  _271
REMARK  116  A    between atoms: _271  and  _272
REMARK  117  A    between atoms: _271  and  _274
REMARK  118  A    between atoms: _274  and  _275
REMARK  119  A    between atoms: _278  and  _280
REMARK  120  A    between atoms: _280  and  _281
REMARK  121  A    between atoms: _280  and  _283
REMARK  122  A    between atoms: _285  and  _287
REMARK  123  A    between atoms: _287  and  _288
REMARK  124  A    between atoms: _287  and  _290
REMARK  125  A    between atoms: _290  and  _291
REMARK  126  A    between atoms: _291  and  _292
REMARK  127  A    between atoms: _295  and  _297
REMARK  128  A    between atoms: _297  and  _298
REMARK  129  A    between atoms: _297  and  _300
REMARK  130  A    between atoms: _300  and  _301
REMARK  131  A    between atoms: _301  and  _302
REMARK  132  A    between atoms: _302  and  _303
REMARK  133  A    between atoms: _312  and  _314
REMARK  134  A    between atoms: _314  and  _315
REMARK  135  A    between atoms: _318  and  _320
REMARK  136  A    between atoms: _320  and  _321
REMARK  137  A    between atoms: _320  and  _323
REMARK  138  A    between atoms: _323  and  _324
REMARK  139  A    between atoms: _324  and  _325
REMARK  140  A    between atoms: _325  and  _326
REMARK  141  A    between atoms: _326  and  _327
REMARK  142  A    between atoms: _331  and  _333
REMARK  143  A    between atoms: _333  and  _334
REMARK  144  A    between atoms: _333  and  _336
REMARK  145  A    between atoms: _336  and  _337
REMARK  146  A    between atoms: _337  and  _338
REMARK  147  A    between atoms: _338  and  _339
REMARK  148  A    between atoms: _348  and  _350
REMARK  149  A    between atoms: _350  and  _351
REMARK  150  A    between atoms: _350  and  _353
REMARK  151  A    between atoms: _353  and  _354
REMARK  152  A    between atoms: _357  and  _359
REMARK  153  A    between atoms: _359  and  _360
REMARK  154  A    between atoms: _359  and  _362
REMARK  155  A    between atoms: _362  and  _363
REMARK  156  A    between atoms: _366  and  _368
REMARK  157  A    between atoms: _368  and  _369
REMARK  158  A    between atoms: _368  and  _371
REMARK  159  A    between atoms: _371  and  _372
REMARK  160  A    between atoms: _374  and  _376
REMARK  161  A    between atoms: _376  and  _377
REMARK  162  A    between atoms: _376  and  _379
REMARK  163  A    between atoms: _379  and  _380
REMARK  164  A    between atoms: _382  and  _384
REMARK  165  A    between atoms: _384  and  _385
REMARK  166  A    between atoms: _384  and  _387
REMARK  167  A    between atoms: _387  and  _388
REMARK  168  A    between atoms: _394  and  _396
REMARK  169  A    between atoms: _396  and  _397
REMARK  170  A    between atoms: _396  and  _399
REMARK  171  A    between atoms: _402  and  _404
REMARK  172  A    between atoms: _404  and  _405
REMARK  173  A    between atoms: _407  and  _409
REMARK  174  A    between atoms: _409  and  _410
REMARK  175  A    between atoms: _412  and  _414
REMARK  176  A    between atoms: _414  and  _415
REMARK  177  A    between atoms: _414  and  _417
REMARK  178  A    between atoms: _417  and  _418
REMARK  179  A    between atoms: _420  and  _422
REMARK  180  A    between atoms: _422  and  _423
REMARK  181  A    between atoms: _422  and  _425
REMARK  182  A    between atoms: _425  and  _426
REMARK  183  A    between atoms: _429  and  _431
REMARK  184  A    between atoms: _431  and  _432
REMARK  185  A    between atoms: _431  and  _434
REMARK  186  A    between atoms: _434  and  _435
REMARK  187  A    between atoms: _435  and  _436
REMARK  188  A    between atoms: _436  and  _437
REMARK  189  A    between atoms: _446  and  _448
REMARK  190  A    between atoms: _448  and  _449
REMARK  191  A    between atoms: _448  and  _451
REMARK  192  A    between atoms: _451  and  _452
REMARK  193  A    between atoms: _456  and  _457
REMARK  194  A    between atoms: _462  and  _464
REMARK  195  A    between atoms: _464  and  _465
REMARK  196  A    between atoms: _464  and  _467
REMARK  197  A    between atoms: _467  and  _468
REMARK  198  A    between atoms: _471  and  _473
REMARK  199  A    between atoms: _473  and  _474
REMARK  200  A    between atoms: _473  and  _476
REMARK  201  A    between atoms: _476  and  _477
REMARK  202  A    between atoms: _483  and  _484
REMARK  203  A    between atoms: _489  and  _491
REMARK  204  A    between atoms: _491  and  _492
REMARK  205  A    between atoms: _491  and  _494
REMARK  206  A    between atoms: _494  and  _495
REMARK  207  A    between atoms: _498  and  _500
REMARK  208  A    between atoms: _500  and  _501
REMARK  209  A    between atoms: _500  and  _503
REMARK  210  A    between atoms: _503  and  _504
REMARK  211  A    between atoms: _504  and  _505
REMARK  212  A    between atoms: _508  and  _510
REMARK  213  A    between atoms: _510  and  _511
REMARK  214  A    between atoms: _514  and  _516
REMARK  215  A    between atoms: _516  and  _517
REMARK  216  A    between atoms: _516  and  _519
REMARK                            x       y       z     vdW  Elec       q    Type
REMARK                         _______ _______ _______ _____ _____    ______ ____
ROOT
ATOM      1  O   HOH     1      19.128  30.005  11.394  0.00  0.00    +0.000 OA
ENDROOT
TORSDOF 0
REMARK  Name = ../refined-set-2016/1atr/1atr_pocket.pdb
REMARK  216 active torsions:
REMARK  status: ('A' for Active; 'I' for Inactive)
REMARK    1  A    between atoms: _1  and  _3
REMARK    2  A    between atoms: _3  and  _4
REMARK    3  A    between atoms: _3  and  _6
REMARK    4  A    between atoms: _6  and  _7
REMARK    5  A    between atoms: _10  and  _12
REMARK    6  A    between atoms: _12  and  _13
REMARK    7  A    between atoms: _12  and  _15
REMARK    8  A    between atoms: _15  and  _16
REMARK    9  A    between atoms: _19  and  _21
REMARK   10  A    between atoms: _21  and  _22
REMARK   11  A    between atoms: _24  and  _26
REMARK   12  A    between atoms: _26  and  _27
REMARK   13  A    between atoms: _26  and  _29
REMARK   14  A    between atoms: _29  and  _30
REMARK   15  A    between atoms: _33  and  _35
REMARK   16  A    between atoms: _35  and  _36
REMARK   17  A    between atoms: _35  and  _38
REMARK   18  A    between atoms: _38  and  _39
REMARK   19  A    between atoms: _42  and  _44
REMARK   20  A    between atoms: _44  and  _45
REMARK   21  A    between atoms: _44  and  _47
REMARK   22  A    between atoms: _47  and  _48
REMARK   23  A    between atoms: _53  and  _54
REMARK   24  A    between atoms: _56  and  _58
REMARK   25  A    between atoms: _58  and  _59
REMARK   26  A    between atoms: _58  and  _61
REMARK   27  A    between atoms: _61  and  _62
REMARK   28  A    between atoms: _64  and  _66
REMARK   29  A    between atoms: _66  and  _67
REMARK   30  A    between atoms: _66  and  _69
REMARK   31  A    between atoms: _71  and  _73
REMARK   32  A    between atoms: _73  and  _74
REMARK   33  A    between atoms: _73  and  _76
REMARK   34  A    between atoms: _76  and  _77
REMARK   35  A    between atoms: _80  and  _82
REMARK   36  A    between atoms: _82  and  _83
REMARK   37  A    between atoms: _82  and  _85
REMARK   38  A    between atoms: _85  and  _86
REMARK   39  A    between atoms: _90  and  _91
REMARK   40  A    between atoms: _96  and  _98
REMARK   41  A    between atoms: _98  and  _99
REMARK   42  A    between atoms: _98  and  _101
REMARK   43  A    between atoms: _101  and  _102
REMARK   44  A    between atoms: _104  and  _106
REMARK   45  A    between atoms: _106  and  _107
REMARK   46  A    between atoms: _106  and  _109
REMARK   47  A    between atoms: _109  and  _110
REMARK   48  A    between atoms: _110  and  _111
REMARK   49  A    between atoms: _111  and  _112
REMARK   50  A    between atoms: _112  and  _113
REMARK   51  A    between atoms: _117  and  _119
REMARK   52  A    between atoms: _119  and  _120
REMARK   53  A    between atoms: _119  and  _122
REMARK   54  A    between atoms: _122  and  _123
REMARK   55  A    between atoms: _126  and  _128
REMARK   56  A    between atoms: _128  and  _129
REMARK   57  A    between atoms: _128  and  _131
REMARK   58  A    between atoms: _131  and  _132
REMARK   59  A    between atoms: _132  and  _133
REMARK   60  A    between atoms: _133  and  _134
REMARK   61  A    between atoms: _134  and  _135
REMARK   62  A    between atoms: _139  and  _141
REMARK   63  A    between atoms: _141  and  _142
REMARK   64  A    between atoms: _141  and  _144
REMARK   65  A    between atoms: _144  and  _145
REMARK   66  A    between atoms: _145  and  _146
REMARK   67  A    between atoms: _146  and  _147
REMARK   68  A    between atoms: _156  and  _158
REMARK   69  A    between atoms: _158  and  _159
REMARK   70  A    between atoms: _158  and  _161
REMARK   71  A    between atoms: _161  and  _162
REMARK   72  A    between atoms: _162  and  _163
REMARK   73  A    between atoms: _166  and  _168
REMARK   74  A    between atoms: _168  and  _169
REMARK   75  A    between atoms: _168  and  _171
REMARK   76  A    between atoms: _171  and  _172
REMARK   77  A    between atoms: _175  and  _177
REMARK   78  A    between atoms: _177  and  _178
REMARK   79  A    between atoms: _177  and  _180
REMARK   80  A    between atoms: _180  and  _181
REMARK   81  A    between atoms: _184  and  _186
REMARK   82  A    between atoms: _186  and  _187
REMARK   83  A    between atoms: _189  and  _191
REMARK   84  A    between atoms: _191  and  _192
REMARK   85  A    between atoms: _194  and  _196
REMARK   86  A    between atoms: _196  and  _197
REMARK   87  A    between atoms: _199  and  _201
REMARK   88  A    between atoms: _201  and  _202
REMARK   89  A    between atoms: _201  and  _204
REMARK   90  A    between atoms: _207  and  _209
REMARK   91  A    between atoms: _209  and  _210
REMARK   92  A    between atoms: _209  and  _212
REMARK   93  A    between atoms: _212  and  _213
REMARK   94  A    between atoms: _219  and  _221
REMARK   95  A    between atoms: _221  and  _222
REMARK   96  A    between atoms: _221  and  _224
REMARK   97  A    between atoms: _224  and  _225
REMARK   98  A    between atoms: _228  and  _230
REMARK   99  A    between atoms: _230  and  _231
REMARK  100  A    between atoms: _233  and  _235
REMARK  101  A    between atoms: _235  and  _236
REMARK  102  A    between atoms: _238  and  _240
REMARK  103  A    between atoms: _240  and  _241
REMARK  104  A    between atoms: _240  and  _243
REMARK  105  A    between atoms: _243  and  _244
REMARK  106  A    between atoms: _244  and  _245
REMARK  107  A    between atoms: _248  and  _250
REMARK  108  A    between atoms: _250  and  _251
REMARK  109  A    between atoms: _250  and  _253
REMARK  110  A    between atoms: _253  and  _254
REMARK  111  A    between atoms: _257  and  _259
REMARK  112  A    between atoms: _259  and  _260
REMARK  113  A    between atoms: _259  and  _262
REMARK  114  A    between atoms: _262  and  _263
REMARK  115  A    between atoms: _269  and  _271
REMARK  116  A    between atoms: _271  and  _272
REMARK  117  A    between atoms: _271  and  _274
REMARK  118  A    between atoms: _274  and  _275
REMARK  119  A    between atoms: _278  and  _280
REMARK  120  A    between atoms: _280  and  _281
REMARK  121  A    between atoms: _280  and  _283
REMARK  122  A    between atoms: _285  and  _287
REMARK  123  A    between atoms: _287  and  _288
REMARK  124  A    between atoms: _287  and  _290
REMARK  125  A    between atoms: _290  and  _291
REMARK  126  A    between atoms: _291  and  _292
REMARK  127  A    between atoms: _295  and  _297
REMARK  128  A    between atoms: _297  and  _298
REMARK  129  A    between atoms: _297  and  _300
REMARK  130  A    between atoms: _300  and  _301
REMARK  131  A    between atoms: _301  and  _302
REMARK  132  A    between atoms: _302  and  _303
REMARK  133  A    between atoms: _312  and  _314
REMARK  134  A    between atoms: _314  and  _315
REMARK  135  A    between atoms: _318  and  _320
REMARK  136  A    between atoms: _320  and  _321
REMARK  137  A    between atoms: _320  and  _323
REMARK  138  A    between atoms: _323  and  _324
REMARK  139  A    between atoms: _324  and  _325
REMARK  140  A    between atoms: _325  and  _326
REMARK  141  A    between atoms: _326  and  _327
REMARK  142  A    between atoms: _331  and  _333
REMARK  143  A    between atoms: _333  and  _334
REMARK  144  A    between atoms: _333  and  _336
REMARK  145  A    between atoms: _336  and  _337
REMARK  146  A    between atoms: _337  and  _338
REMARK  147  A    between atoms: _338  and  _339
REMARK  148  A    between atoms: _348  and  _350
REMARK  149  A    between atoms: _350  and  _351
REMARK  150  A    between atoms: _350  and  _353
REMARK  151  A    between atoms: _353  and  _354
REMARK  152  A    between atoms: _357  and  _359
REMARK  153  A    between atoms: _359  and  _360
REMARK  154  A    between atoms: _359  and  _362
REMARK  155  A    between atoms: _362  and  _363
REMARK  156  A    between atoms: _366  and  _368
REMARK  157  A    between atoms: _368  and  _369
REMARK  158  A    between atoms: _368  and  _371
REMARK  159  A    between atoms: _371  and  _372
REMARK  160  A    between atoms: _374  and  _376
REMARK  161  A    between atoms: _376  and  _377
REMARK  162  A    between atoms: _376  and  _379
REMARK  163  A    between atoms: _379  and  _380
REMARK  164  A    between atoms: _382  and  _384
REMARK  165  A    between atoms: _384  and  _385
REMARK  166  A    between atoms: _384  and  _387
REMARK  167  A    between atoms: _387  and  _388
REMARK  168  A    between atoms: _394  and  _396
REMARK  169  A    between atoms: _396  and  _397
REMARK  170  A    between atoms: _396  and  _399
REMARK  171  A    between atoms: _402  and  _404
REMARK  172  A    between atoms: _404  and  _405
REMARK  173  A    between atoms: _407  and  _409
REMARK  174  A    between atoms: _409  and  _410
REMARK  175  A    between atoms: _412  and  _414
REMARK  176  A    between atoms: _414  and  _415
REMARK  177  A    between atoms: _414  and  _417
REMARK  178  A    between atoms: _417  and  _418
REMARK  179  A    between atoms: _420  and  _422
REMARK  180  A    between atoms: _422  and  _423
REMARK  181  A    between atoms: _422  and  _425
REMARK  182  A    between atoms: _425  and  _426
REMARK  183  A    between atoms: _429  and  _431
REMARK  184  A    between atoms: _431  and  _432
REMARK  185  A    between atoms: _431  and  _434
REMARK  186  A    between atoms: _434  and  _435
REMARK  187  A    between atoms: _435  and  _436
REMARK  188  A    between atoms: _436  and  _437
REMARK  189  A    between atoms: _446  and  _448
REMARK  190  A    between atoms: _448  and  _449
REMARK  191  A    between atoms: _448  and  _451
REMARK  192  A    between atoms: _451  and  _452
REMARK  193  A    between atoms: _456  and  _457
REMARK  194  A    between atoms: _462  and  _464
REMARK  195  A    between atoms: _464  and  _465
REMARK  196  A    between atoms: _464  and  _467
REMARK  197  A    between atoms: _467  and  _468
REMARK  198  A    between atoms: _471  and  _473
REMARK  199  A    between atoms: _473  and  _474
REMARK  200  A    between atoms: _473  and  _476
REMARK  201  A    between atoms: _476  and  _477
REMARK  202  A    between atoms: _483  and  _484
REMARK  203  A    between atoms: _489  and  _491
REMARK  204  A    between atoms: _491  and  _492
REMARK  205  A    between atoms: _491  and  _494
REMARK  206  A    between atoms: _494  and  _495
REMARK  207  A    between atoms: _498  and  _500
REMARK  208  A    between atoms: _500  and  _501
REMARK  209  A    between atoms: _500  and  _503
REMARK  210  A    between atoms: _503  and  _504
REMARK  211  A    between atoms: _504  and  _505
REMARK  212  A    between atoms: _508  and  _510
REMARK  213  A    between atoms: _510  and  _511
REMARK  214  A    between atoms: _514  and  _516
REMARK  215  A    between atoms: _516  and  _517
REMARK  216  A    between atoms: _516  and  _519
REMARK                            x       y       z     vdW  Elec       q    Type
REMARK                         _______ _______ _______ _____ _____    ______ ____
ROOT
ATOM      1  O   HOH     1      21.769  27.021   9.729  0.00  0.00    +0.000 OA
ENDROOT
TORSDOF 0
REMARK  Name = ../refined-set-2016/1atr/1atr_pocket.pdb
REMARK  216 active torsions:
REMARK  status: ('A' for Active; 'I' for Inactive)
REMARK    1  A    between atoms: _1  and  _3
REMARK    2  A    between atoms: _3  and  _4
REMARK    3  A    between atoms: _3  and  _6
REMARK    4  A    between atoms: _6  and  _7
REMARK    5  A    between atoms: _10  and  _12
REMARK    6  A    between atoms: _12  and  _13
REMARK    7  A    between atoms: _12  and  _15
REMARK    8  A    between atoms: _15  and  _16
REMARK    9  A    between atoms: _19  and  _21
REMARK   10  A    between atoms: _21  and  _22
REMARK   11  A    between atoms: _24  and  _26
REMARK   12  A    between atoms: _26  and  _27
REMARK   13  A    between atoms: _26  and  _29
REMARK   14  A    between atoms: _29  and  _30
REMARK   15  A    between atoms: _33  and  _35
REMARK   16  A    between atoms: _35  and  _36
REMARK   17  A    between atoms: _35  and  _38
REMARK   18  A    between atoms: _38  and  _39
REMARK   19  A    between atoms: _42  and  _44
REMARK   20  A    between atoms: _44  and  _45
REMARK   21  A    between atoms: _44  and  _47
REMARK   22  A    between atoms: _47  and  _48
REMARK   23  A    between atoms: _53  and  _54
REMARK   24  A    between atoms: _56  and  _58
REMARK   25  A    between atoms: _58  and  _59
REMARK   26  A    between atoms: _58  and  _61
REMARK   27  A    between atoms: _61  and  _62
REMARK   28  A    between atoms: _64  and  _66
REMARK   29  A    between atoms: _66  and  _67
REMARK   30  A    between atoms: _66  and  _69
REMARK   31  A    between atoms: _71  and  _73
REMARK   32  A    between atoms: _73  and  _74
REMARK   33  A    between atoms: _73  and  _76
REMARK   34  A    between atoms: _76  and  _77
REMARK   35  A    between atoms: _80  and  _82
REMARK   36  A    between atoms: _82  and  _83
REMARK   37  A    between atoms: _82  and  _85
REMARK   38  A    between atoms: _85  and  _86
REMARK   39  A    between atoms: _90  and  _91
REMARK   40  A    between atoms: _96  and  _98
REMARK   41  A    between atoms: _98  and  _99
REMARK   42  A    between atoms: _98  and  _101
REMARK   43  A    between atoms: _101  and  _102
REMARK   44  A    between atoms: _104  and  _106
REMARK   45  A    between atoms: _106  and  _107
REMARK   46  A    between atoms: _106  and  _109
REMARK   47  A    between atoms: _109  and  _110
REMARK   48  A    between atoms: _110  and  _111
REMARK   49  A    between atoms: _111  and  _112
REMARK   50  A    between atoms: _112  and  _113
REMARK   51  A    between atoms: _117  and  _119
REMARK   52  A    between atoms: _119  and  _120
REMARK   53  A    between atoms: _119  and  _122
REMARK   54  A    between atoms: _122  and  _123
REMARK   55  A    between atoms: _126  and  _128
REMARK   56  A    between atoms: _128  and  _129
REMARK   57  A    between atoms: _128  and  _131
REMARK   58  A    between atoms: _131  and  _132
REMARK   59  A    between atoms: _132  and  _133
REMARK   60  A    between atoms: _133  and  _134
REMARK   61  A    between atoms: _134  and  _135
REMARK   62  A    between atoms: _139  and  _141
REMARK   63  A    between atoms: _141  and  _142
REMARK   64  A    between atoms: _141  and  _144
REMARK   65  A    between atoms: _144  and  _145
REMARK   66  A    between atoms: _145  and  _146
REMARK   67  A    between atoms: _146  and  _147
REMARK   68  A    between atoms: _156  and  _158
REMARK   69  A    between atoms: _158  and  _159
REMARK   70  A    between atoms: _158  and  _161
REMARK   71  A    between atoms: _161  and  _162
REMARK   72  A    between atoms: _162  and  _163
REMARK   73  A    between atoms: _166  and  _168
REMARK   74  A    between atoms: _168  and  _169
REMARK   75  A    between atoms: _168  and  _171
REMARK   76  A    between atoms: _171  and  _172
REMARK   77  A    between atoms: _175  and  _177
REMARK   78  A    between atoms: _177  and  _178
REMARK   79  A    between atoms: _177  and  _180
REMARK   80  A    between atoms: _180  and  _181
REMARK   81  A    between atoms: _184  and  _186
REMARK   82  A    between atoms: _186  and  _187
REMARK   83  A    between atoms: _189  and  _191
REMARK   84  A    between atoms: _191  and  _192
REMARK   85  A    between atoms: _194  and  _196
REMARK   86  A    between atoms: _196  and  _197
REMARK   87  A    between atoms: _199  and  _201
REMARK   88  A    between atoms: _201  and  _202
REMARK   89  A    between atoms: _201  and  _204
REMARK   90  A    between atoms: _207  and  _209
REMARK   91  A    between atoms: _209  and  _210
REMARK   92  A    between atoms: _209  and  _212
REMARK   93  A    between atoms: _212  and  _213
REMARK   94  A    between atoms: _219  and  _221
REMARK   95  A    between atoms: _221  and  _222
REMARK   96  A    between atoms: _221  and  _224
REMARK   97  A    between atoms: _224  and  _225
REMARK   98  A    between atoms: _228  and  _230
REMARK   99  A    between atoms: _230  and  _231
REMARK  100  A    between atoms: _233  and  _235
REMARK  101  A    between atoms: _235  and  _236
REMARK  102  A    between atoms: _238  and  _240
REMARK  103  A    between atoms: _240  and  _241
REMARK  104  A    between atoms: _240  and  _243
REMARK  105  A    between atoms: _243  and  _244
REMARK  106  A    between atoms: _244  and  _245
REMARK  107  A    between atoms: _248  and  _250
REMARK  108  A    between atoms: _250  and  _251
REMARK  109  A    between atoms: _250  and  _253
REMARK  110  A    between atoms: _253  and  _254
REMARK  111  A    between atoms: _257  and  _259
REMARK  112  A    between atoms: _259  and  _260
REMARK  113  A    between atoms: _259  and  _262
REMARK  114  A    between atoms: _262  and  _263
REMARK  115  A    between atoms: _269  and  _271
REMARK  116  A    between atoms: _271  and  _272
REMARK  117  A    between atoms: _271  and  _274
REMARK  118  A    between atoms: _274  and  _275
REMARK  119  A    between atoms: _278  and  _280
REMARK  120  A    between atoms: _280  and  _281
REMARK  121  A    between atoms: _280  and  _283
REMARK  122  A    between atoms: _285  and  _287
REMARK  123  A    between atoms: _287  and  _288
REMARK  124  A    between atoms: _287  and  _290
REMARK  125  A    between atoms: _290  and  _291
REMARK  126  A    between atoms: _291  and  _292
REMARK  127  A    between atoms: _295  and  _297
REMARK  128  A    between atoms: _297  and  _298
REMARK  129  A    between atoms: _297  and  _300
REMARK  130  A    between atoms: _300  and  _301
REMARK  131  A    between atoms: _301  and  _302
REMARK  132  A    between atoms: _302  and  _303
REMARK  133  A    between atoms: _312  and  _314
REMARK  134  A    between atoms: _314  and  _315
REMARK  135  A    between atoms: _318  and  _320
REMARK  136  A    between atoms: _320  and  _321
REMARK  137  A    between atoms: _320  and  _323
REMARK  138  A    between atoms: _323  and  _324
REMARK  139  A    between atoms: _324  and  _325
REMARK  140  A    between atoms: _325  and  _326
REMARK  141  A    between atoms: _326  and  _327
REMARK  142  A    between atoms: _331  and  _333
REMARK  143  A    between atoms: _333  and  _334
REMARK  144  A    between atoms: _333  and  _336
REMARK  145  A    between atoms: _336  and  _337
REMARK  146  A    between atoms: _337  and  _338
REMARK  147  A    between atoms: _338  and  _339
REMARK  148  A    between atoms: _348  and  _350
REMARK  149  A    between atoms: _350  and  _351
REMARK  150  A    between atoms: _350  and  _353
REMARK  151  A    between atoms: _353  and  _354
REMARK  152  A    between atoms: _357  and  _359
REMARK  153  A    between atoms: _359  and  _360
REMARK  154  A    between atoms: _359  and  _362
REMARK  155  A    between atoms: _362  and  _363
REMARK  156  A    between atoms: _366  and  _368
REMARK  157  A    between atoms: _368  and  _369
REMARK  158  A    between atoms: _368  and  _371
REMARK  159  A    between atoms: _371  and  _372
REMARK  160  A    between atoms: _374  and  _376
REMARK  161  A    between atoms: _376  and  _377
REMARK  162  A    between atoms: _376  and  _379
REMARK  163  A    between atoms: _379  and  _380
REMARK  164  A    between atoms: _382  and  _384
REMARK  165  A    between atoms: _384  and  _385
REMARK  166  A    between atoms: _384  and  _387
REMARK  167  A    between atoms: _387  and  _388
REMARK  168  A    between atoms: _394  and  _396
REMARK  169  A    between atoms: _396  and  _397
REMARK  170  A    between atoms: _396  and  _399
REMARK  171  A    between atoms: _402  and  _404
REMARK  172  A    between atoms: _404  and  _405
REMARK  173  A    between atoms: _407  and  _409
REMARK  174  A    between atoms: _409  and  _410
REMARK  175  A    between atoms: _412  and  _414
REMARK  176  A    between atoms: _414  and  _415
REMARK  177  A    between atoms: _414  and  _417
REMARK  178  A    between atoms: _417  and  _418
REMARK  179  A    between atoms: _420  and  _422
REMARK  180  A    between atoms: _422  and  _423
REMARK  181  A    between atoms: _422  and  _425
REMARK  182  A    between atoms: _425  and  _426
REMARK  183  A    between atoms: _429  and  _431
REMARK  184  A    between atoms: _431  and  _432
REMARK  185  A    between atoms: _431  and  _434
REMARK  186  A    between atoms: _434  and  _435
REMARK  187  A    between atoms: _435  and  _436
REMARK  188  A    between atoms: _436  and  _437
REMARK  189  A    between atoms: _446  and  _448
REMARK  190  A    between atoms: _448  and  _449
REMARK  191  A    between atoms: _448  and  _451
REMARK  192  A    between atoms: _451  and  _452
REMARK  193  A    between atoms: _456  and  _457
REMARK  194  A    between atoms: _462  and  _464
REMARK  195  A    between atoms: _464  and  _465
REMARK  196  A    between atoms: _464  and  _467
REMARK  197  A    between atoms: _467  and  _468
REMARK  198  A    between atoms: _471  and  _473
REMARK  199  A    between atoms: _473  and  _474
REMARK  200  A    between atoms: _473  and  _476
REMARK  201  A    between atoms: _476  and  _477
REMARK  202  A    between atoms: _483  and  _484
REMARK  203  A    between atoms: _489  and  _491
REMARK  204  A    between atoms: _491  and  _492
REMARK  205  A    between atoms: _491  and  _494
REMARK  206  A    between atoms: _494  and  _495
REMARK  207  A    between atoms: _498  and  _500
REMARK  208  A    between atoms: _500  and  _501
REMARK  209  A    between atoms: _500  and  _503
REMARK  210  A    between atoms: _503  and  _504
REMARK  211  A    between atoms: _504  and  _505
REMARK  212  A    between atoms: _508  and  _510
REMARK  213  A    between atoms: _510  and  _511
REMARK  214  A    between atoms: _514  and  _516
REMARK  215  A    between atoms: _516  and  _517
REMARK  216  A    between atoms: _516  and  _519
REMARK                            x       y       z     vdW  Elec       q    Type
REMARK                         _______ _______ _______ _____ _____    ______ ____
ROOT
ATOM      1  O   HOH     1      11.106  24.891  14.859  0.00  0.00    +0.000 OA
ENDROOT
TORSDOF 0
REMARK  Name = ../refined-set-2016/1atr/1atr_pocket.pdb
REMARK  216 active torsions:
REMARK  status: ('A' for Active; 'I' for Inactive)
REMARK    1  A    between atoms: _1  and  _3
REMARK    2  A    between atoms: _3  and  _4
REMARK    3  A    between atoms: _3  and  _6
REMARK    4  A    between atoms: _6  and  _7
REMARK    5  A    between atoms: _10  and  _12
REMARK    6  A    between atoms: _12  and  _13
REMARK    7  A    between atoms: _12  and  _15
REMARK    8  A    between atoms: _15  and  _16
REMARK    9  A    between atoms: _19  and  _21
REMARK   10  A    between atoms: _21  and  _22
REMARK   11  A    between atoms: _24  and  _26
REMARK   12  A    between atoms: _26  and  _27
REMARK   13  A    between atoms: _26  and  _29
REMARK   14  A    between atoms: _29  and  _30
REMARK   15  A    between atoms: _33  and  _35
REMARK   16  A    between atoms: _35  and  _36
REMARK   17  A    between atoms: _35  and  _38
REMARK   18  A    between atoms: _38  and  _39
REMARK   19  A    between atoms: _42  and  _44
REMARK   20  A    between atoms: _44  and  _45
REMARK   21  A    between atoms: _44  and  _47
REMARK   22  A    between atoms: _47  and  _48
REMARK   23  A    between atoms: _53  and  _54
REMARK   24  A    between atoms: _56  and  _58
REMARK   25  A    between atoms: _58  and  _59
REMARK   26  A    between atoms: _58  and  _61
REMARK   27  A    between atoms: _61  and  _62
REMARK   28  A    between atoms: _64  and  _66
REMARK   29  A    between atoms: _66  and  _67
REMARK   30  A    between atoms: _66  and  _69
REMARK   31  A    between atoms: _71  and  _73
REMARK   32  A    between atoms: _73  and  _74
REMARK   33  A    between atoms: _73  and  _76
REMARK   34  A    between atoms: _76  and  _77
REMARK   35  A    between atoms: _80  and  _82
REMARK   36  A    between atoms: _82  and  _83
REMARK   37  A    between atoms: _82  and  _85
REMARK   38  A    between atoms: _85  and  _86
REMARK   39  A    between atoms: _90  and  _91
REMARK   40  A    between atoms: _96  and  _98
REMARK   41  A    between atoms: _98  and  _99
REMARK   42  A    between atoms: _98  and  _101
REMARK   43  A    between atoms: _101  and  _102
REMARK   44  A    between atoms: _104  and  _106
REMARK   45  A    between atoms: _106  and  _107
REMARK   46  A    between atoms: _106  and  _109
REMARK   47  A    between atoms: _109  and  _110
REMARK   48  A    between atoms: _110  and  _111
REMARK   49  A    between atoms: _111  and  _112
REMARK   50  A    between atoms: _112  and  _113
REMARK   51  A    between atoms: _117  and  _119
REMARK   52  A    between atoms: _119  and  _120
REMARK   53  A    between atoms: _119  and  _122
REMARK   54  A    between atoms: _122  and  _123
REMARK   55  A    between atoms: _126  and  _128
REMARK   56  A    between atoms: _128  and  _129
REMARK   57  A    between atoms: _128  and  _131
REMARK   58  A    between atoms: _131  and  _132
REMARK   59  A    between atoms: _132  and  _133
REMARK   60  A    between atoms: _133  and  _134
REMARK   61  A    between atoms: _134  and  _135
REMARK   62  A    between atoms: _139  and  _141
REMARK   63  A    between atoms: _141  and  _142
REMARK   64  A    between atoms: _141  and  _144
REMARK   65  A    between atoms: _144  and  _145
REMARK   66  A    between atoms: _145  and  _146
REMARK   67  A    between atoms: _146  and  _147
REMARK   68  A    between atoms: _156  and  _158
REMARK   69  A    between atoms: _158  and  _159
REMARK   70  A    between atoms: _158  and  _161
REMARK   71  A    between atoms: _161  and  _162
REMARK   72  A    between atoms: _162  and  _163
REMARK   73  A    between atoms: _166  and  _168
REMARK   74  A    between atoms: _168  and  _169
REMARK   75  A    between atoms: _168  and  _171
REMARK   76  A    between atoms: _171  and  _172
REMARK   77  A    between atoms: _175  and  _177
REMARK   78  A    between atoms: _177  and  _178
REMARK   79  A    between atoms: _177  and  _180
REMARK   80  A    between atoms: _180  and  _181
REMARK   81  A    between atoms: _184  and  _186
REMARK   82  A    between atoms: _186  and  _187
REMARK   83  A    between atoms: _189  and  _191
REMARK   84  A    between atoms: _191  and  _192
REMARK   85  A    between atoms: _194  and  _196
REMARK   86  A    between atoms: _196  and  _197
REMARK   87  A    between atoms: _199  and  _201
REMARK   88  A    between atoms: _201  and  _202
REMARK   89  A    between atoms: _201  and  _204
REMARK   90  A    between atoms: _207  and  _209
REMARK   91  A    between atoms: _209  and  _210
REMARK   92  A    between atoms: _209  and  _212
REMARK   93  A    between atoms: _212  and  _213
REMARK   94  A    between atoms: _219  and  _221
REMARK   95  A    between atoms: _221  and  _222
REMARK   96  A    between atoms: _221  and  _224
REMARK   97  A    between atoms: _224  and  _225
REMARK   98  A    between atoms: _228  and  _230
REMARK   99  A    between atoms: _230  and  _231
REMARK  100  A    between atoms: _233  and  _235
REMARK  101  A    between atoms: _235  and  _236
REMARK  102  A    between atoms: _238  and  _240
REMARK  103  A    between atoms: _240  and  _241
REMARK  104  A    between atoms: _240  and  _243
REMARK  105  A    between atoms: _243  and  _244
REMARK  106  A    between atoms: _244  and  _245
REMARK  107  A    between atoms: _248  and  _250
REMARK  108  A    between atoms: _250  and  _251
REMARK  109  A    between atoms: _250  and  _253
REMARK  110  A    between atoms: _253  and  _254
REMARK  111  A    between atoms: _257  and  _259
REMARK  112  A    between atoms: _259  and  _260
REMARK  113  A    between atoms: _259  and  _262
REMARK  114  A    between atoms: _262  and  _263
REMARK  115  A    between atoms: _269  and  _271
REMARK  116  A    between atoms: _271  and  _272
REMARK  117  A    between atoms: _271  and  _274
REMARK  118  A    between atoms: _274  and  _275
REMARK  119  A    between atoms: _278  and  _280
REMARK  120  A    between atoms: _280  and  _281
REMARK  121  A    between atoms: _280  and  _283
REMARK  122  A    between atoms: _285  and  _287
REMARK  123  A    between atoms: _287  and  _288
REMARK  124  A    between atoms: _287  and  _290
REMARK  125  A    between atoms: _290  and  _291
REMARK  126  A    between atoms: _291  and  _292
REMARK  127  A    between atoms: _295  and  _297
REMARK  128  A    between atoms: _297  and  _298
REMARK  129  A    between atoms: _297  and  _300
REMARK  130  A    between atoms: _300  and  _301
REMARK  131  A    between atoms: _301  and  _302
REMARK  132  A    between atoms: _302  and  _303
REMARK  133  A    between atoms: _312  and  _314
REMARK  134  A    between atoms: _314  and  _315
REMARK  135  A    between atoms: _318  and  _320
REMARK  136  A    between atoms: _320  and  _321
REMARK  137  A    between atoms: _320  and  _323
REMARK  138  A    between atoms: _323  and  _324
REMARK  139  A    between atoms: _324  and  _325
REMARK  140  A    between atoms: _325  and  _326
REMARK  141  A    between atoms: _326  and  _327
REMARK  142  A    between atoms: _331  and  _333
REMARK  143  A    between atoms: _333  and  _334
REMARK  144  A    between atoms: _333  and  _336
REMARK  145  A    between atoms: _336  and  _337
REMARK  146  A    between atoms: _337  and  _338
REMARK  147  A    between atoms: _338  and  _339
REMARK  148  A    between atoms: _348  and  _350
REMARK  149  A    between atoms: _350  and  _351
REMARK  150  A    between atoms: _350  and  _353
REMARK  151  A    between atoms: _353  and  _354
REMARK  152  A    between atoms: _357  and  _359
REMARK  153  A    between atoms: _359  and  _360
REMARK  154  A    between atoms: _359  and  _362
REMARK  155  A    between atoms: _362  and  _363
REMARK  156  A    between atoms: _366  and  _368
REMARK  157  A    between atoms: _368  and  _369
REMARK  158  A    between atoms: _368  and  _371
REMARK  159  A    between atoms: _371  and  _372
REMARK  160  A    between atoms: _374  and  _376
REMARK  161  A    between atoms: _376  and  _377
REMARK  162  A    between atoms: _376  and  _379
REMARK  163  A    between atoms: _379  and  _380
REMARK  164  A    between atoms: _382  and  _384
REMARK  165  A    between atoms: _384  and  _385
REMARK  166  A    between atoms: _384  and  _387
REMARK  167  A    between atoms: _387  and  _388
REMARK  168  A    between atoms: _394  and  _396
REMARK  169  A    between atoms: _396  and  _397
REMARK  170  A    between atoms: _396  and  _399
REMARK  171  A    between atoms: _402  and  _404
REMARK  172  A    between atoms: _404  and  _405
REMARK  173  A    between atoms: _407  and  _409
REMARK  174  A    between atoms: _409  and  _410
REMARK  175  A    between atoms: _412  and  _414
REMARK  176  A    between atoms: _414  and  _415
REMARK  177  A    between atoms: _414  and  _417
REMARK  178  A    between atoms: _417  and  _418
REMARK  179  A    between atoms: _420  and  _422
REMARK  180  A    between atoms: _422  and  _423
REMARK  181  A    between atoms: _422  and  _425
REMARK  182  A    between atoms: _425  and  _426
REMARK  183  A    between atoms: _429  and  _431
REMARK  184  A    between atoms: _431  and  _432
REMARK  185  A    between atoms: _431  and  _434
REMARK  186  A    between atoms: _434  and  _435
REMARK  187  A    between atoms: _435  and  _436
REMARK  188  A    between atoms: _436  and  _437
REMARK  189  A    between atoms: _446  and  _448
REMARK  190  A    between atoms: _448  and  _449
REMARK  191  A    between atoms: _448  and  _451
REMARK  192  A    between atoms: _451  and  _452
REMARK  193  A    between atoms: _456  and  _457
REMARK  194  A    between atoms: _462  and  _464
REMARK  195  A    between atoms: _464  and  _465
REMARK  196  A    between atoms: _464  and  _467
REMARK  197  A    between atoms: _467  and  _468
REMARK  198  A    between atoms: _471  and  _473
REMARK  199  A    between atoms: _473  and  _474
REMARK  200  A    between atoms: _473  and  _476
REMARK  201  A    between atoms: _476  and  _477
REMARK  202  A    between atoms: _483  and  _484
REMARK  203  A    between atoms: _489  and  _491
REMARK  204  A    between atoms: _491  and  _492
REMARK  205  A    between atoms: _491  and  _494
REMARK  206  A    between atoms: _494  and  _495
REMARK  207  A    between atoms: _498  and  _500
REMARK  208  A    between atoms: _500  and  _501
REMARK  209  A    between atoms: _500  and  _503
REMARK  210  A    between atoms: _503  and  _504
REMARK  211  A    between atoms: _504  and  _505
REMARK  212  A    between atoms: _508  and  _510
REMARK  213  A    between atoms: _510  and  _511
REMARK  214  A    between atoms: _514  and  _516
REMARK  215  A    between atoms: _516  and  _517
REMARK  216  A    between atoms: _516  and  _519
REMARK                            x       y       z     vdW  Elec       q    Type
REMARK                         _______ _______ _______ _____ _____    ______ ____
ROOT
ATOM      1  O   HOH     1      10.091  26.202  17.151  0.00  0.00    +0.000 OA
ENDROOT
TORSDOF 0
REMARK  Name = ../refined-set-2016/1atr/1atr_pocket.pdb
REMARK  216 active torsions:
REMARK  status: ('A' for Active; 'I' for Inactive)
REMARK    1  A    between atoms: _1  and  _3
REMARK    2  A    between atoms: _3  and  _4
REMARK    3  A    between atoms: _3  and  _6
REMARK    4  A    between atoms: _6  and  _7
REMARK    5  A    between atoms: _10  and  _12
REMARK    6  A    between atoms: _12  and  _13
REMARK    7  A    between atoms: _12  and  _15
REMARK    8  A    between atoms: _15  and  _16
REMARK    9  A    between atoms: _19  and  _21
REMARK   10  A    between atoms: _21  and  _22
REMARK   11  A    between atoms: _24  and  _26
REMARK   12  A    between atoms: _26  and  _27
REMARK   13  A    between atoms: _26  and  _29
REMARK   14  A    between atoms: _29  and  _30
REMARK   15  A    between atoms: _33  and  _35
REMARK   16  A    between atoms: _35  and  _36
REMARK   17  A    between atoms: _35  and  _38
REMARK   18  A    between atoms: _38  and  _39
REMARK   19  A    between atoms: _42  and  _44
REMARK   20  A    between atoms: _44  and  _45
REMARK   21  A    between atoms: _44  and  _47
REMARK   22  A    between atoms: _47  and  _48
REMARK   23  A    between atoms: _53  and  _54
REMARK   24  A    between atoms: _56  and  _58
REMARK   25  A    between atoms: _58  and  _59
REMARK   26  A    between atoms: _58  and  _61
REMARK   27  A    between atoms: _61  and  _62
REMARK   28  A    between atoms: _64  and  _66
REMARK   29  A    between atoms: _66  and  _67
REMARK   30  A    between atoms: _66  and  _69
REMARK   31  A    between atoms: _71  and  _73
REMARK   32  A    between atoms: _73  and  _74
REMARK   33  A    between atoms: _73  and  _76
REMARK   34  A    between atoms: _76  and  _77
REMARK   35  A    between atoms: _80  and  _82
REMARK   36  A    between atoms: _82  and  _83
REMARK   37  A    between atoms: _82  and  _85
REMARK   38  A    between atoms: _85  and  _86
REMARK   39  A    between atoms: _90  and  _91
REMARK   40  A    between atoms: _96  and  _98
REMARK   41  A    between atoms: _98  and  _99
REMARK   42  A    between atoms: _98  and  _101
REMARK   43  A    between atoms: _101  and  _102
REMARK   44  A    between atoms: _104  and  _106
REMARK   45  A    between atoms: _106  and  _107
REMARK   46  A    between atoms: _106  and  _109
REMARK   47  A    between atoms: _109  and  _110
REMARK   48  A    between atoms: _110  and  _111
REMARK   49  A    between atoms: _111  and  _112
REMARK   50  A    between atoms: _112  and  _113
REMARK   51  A    between atoms: _117  and  _119
REMARK   52  A    between atoms: _119  and  _120
REMARK   53  A    between atoms: _119  and  _122
REMARK   54  A    between atoms: _122  and  _123
REMARK   55  A    between atoms: _126  and  _128
REMARK   56  A    between atoms: _128  and  _129
REMARK   57  A    between atoms: _128  and  _131
REMARK   58  A    between atoms: _131  and  _132
REMARK   59  A    between atoms: _132  and  _133
REMARK   60  A    between atoms: _133  and  _134
REMARK   61  A    between atoms: _134  and  _135
REMARK   62  A    between atoms: _139  and  _141
REMARK   63  A    between atoms: _141  and  _142
REMARK   64  A    between atoms: _141  and  _144
REMARK   65  A    between atoms: _144  and  _145
REMARK   66  A    between atoms: _145  and  _146
REMARK   67  A    between atoms: _146  and  _147
REMARK   68  A    between atoms: _156  and  _158
REMARK   69  A    between atoms: _158  and  _159
REMARK   70  A    between atoms: _158  and  _161
REMARK   71  A    between atoms: _161  and  _162
REMARK   72  A    between atoms: _162  and  _163
REMARK   73  A    between atoms: _166  and  _168
REMARK   74  A    between atoms: _168  and  _169
REMARK   75  A    between atoms: _168  and  _171
REMARK   76  A    between atoms: _171  and  _172
REMARK   77  A    between atoms: _175  and  _177
REMARK   78  A    between atoms: _177  and  _178
REMARK   79  A    between atoms: _177  and  _180
REMARK   80  A    between atoms: _180  and  _181
REMARK   81  A    between atoms: _184  and  _186
REMARK   82  A    between atoms: _186  and  _187
REMARK   83  A    between atoms: _189  and  _191
REMARK   84  A    between atoms: _191  and  _192
REMARK   85  A    between atoms: _194  and  _196
REMARK   86  A    between atoms: _196  and  _197
REMARK   87  A    between atoms: _199  and  _201
REMARK   88  A    between atoms: _201  and  _202
REMARK   89  A    between atoms: _201  and  _204
REMARK   90  A    between atoms: _207  and  _209
REMARK   91  A    between atoms: _209  and  _210
REMARK   92  A    between atoms: _209  and  _212
REMARK   93  A    between atoms: _212  and  _213
REMARK   94  A    between atoms: _219  and  _221
REMARK   95  A    between atoms: _221  and  _222
REMARK   96  A    between atoms: _221  and  _224
REMARK   97  A    between atoms: _224  and  _225
REMARK   98  A    between atoms: _228  and  _230
REMARK   99  A    between atoms: _230  and  _231
REMARK  100  A    between atoms: _233  and  _235
REMARK  101  A    between atoms: _235  and  _236
REMARK  102  A    between atoms: _238  and  _240
REMARK  103  A    between atoms: _240  and  _241
REMARK  104  A    between atoms: _240  and  _243
REMARK  105  A    between atoms: _243  and  _244
REMARK  106  A    between atoms: _244  and  _245
REMARK  107  A    between atoms: _248  and  _250
REMARK  108  A    between atoms: _250  and  _251
REMARK  109  A    between atoms: _250  and  _253
REMARK  110  A    between atoms: _253  and  _254
REMARK  111  A    between atoms: _257  and  _259
REMARK  112  A    between atoms: _259  and  _260
REMARK  113  A    between atoms: _259  and  _262
REMARK  114  A    between atoms: _262  and  _263
REMARK  115  A    between atoms: _269  and  _271
REMARK  116  A    between atoms: _271  and  _272
REMARK  117  A    between atoms: _271  and  _274
REMARK  118  A    between atoms: _274  and  _275
REMARK  119  A    between atoms: _278  and  _280
REMARK  120  A    between atoms: _280  and  _281
REMARK  121  A    between atoms: _280  and  _283
REMARK  122  A    between atoms: _285  and  _287
REMARK  123  A    between atoms: _287  and  _288
REMARK  124  A    between atoms: _287  and  _290
REMARK  125  A    between atoms: _290  and  _291
REMARK  126  A    between atoms: _291  and  _292
REMARK  127  A    between atoms: _295  and  _297
REMARK  128  A    between atoms: _297  and  _298
REMARK  129  A    between atoms: _297  and  _300
REMARK  130  A    between atoms: _300  and  _301
REMARK  131  A    between atoms: _301  and  _302
REMARK  132  A    between atoms: _302  and  _303
REMARK  133  A    between atoms: _312  and  _314
REMARK  134  A    between atoms: _314  and  _315
REMARK  135  A    between atoms: _318  and  _320
REMARK  136  A    between atoms: _320  and  _321
REMARK  137  A    between atoms: _320  and  _323
REMARK  138  A    between atoms: _323  and  _324
REMARK  139  A    between atoms: _324  and  _325
REMARK  140  A    between atoms: _325  and  _326
REMARK  141  A    between atoms: _326  and  _327
REMARK  142  A    between atoms: _331  and  _333
REMARK  143  A    between atoms: _333  and  _334
REMARK  144  A    between atoms: _333  and  _336
REMARK  145  A    between atoms: _336  and  _337
REMARK  146  A    between atoms: _337  and  _338
REMARK  147  A    between atoms: _338  and  _339
REMARK  148  A    between atoms: _348  and  _350
REMARK  149  A    between atoms: _350  and  _351
REMARK  150  A    between atoms: _350  and  _353
REMARK  151  A    between atoms: _353  and  _354
REMARK  152  A    between atoms: _357  and  _359
REMARK  153  A    between atoms: _359  and  _360
REMARK  154  A    between atoms: _359  and  _362
REMARK  155  A    between atoms: _362  and  _363
REMARK  156  A    between atoms: _366  and  _368
REMARK  157  A    between atoms: _368  and  _369
REMARK  158  A    between atoms: _368  and  _371
REMARK  159  A    between atoms: _371  and  _372
REMARK  160  A    between atoms: _374  and  _376
REMARK  161  A    between atoms: _376  and  _377
REMARK  162  A    between atoms: _376  and  _379
REMARK  163  A    between atoms: _379  and  _380
REMARK  164  A    between atoms: _382  and  _384
REMARK  165  A    between atoms: _384  and  _385
REMARK  166  A    between atoms: _384  and  _387
REMARK  167  A    between atoms: _387  and  _388
REMARK  168  A    between atoms: _394  and  _396
REMARK  169  A    between atoms: _396  and  _397
REMARK  170  A    between atoms: _396  and  _399
REMARK  171  A    between atoms: _402  and  _404
REMARK  172  A    between atoms: _404  and  _405
REMARK  173  A    between atoms: _407  and  _409
REMARK  174  A    between atoms: _409  and  _410
REMARK  175  A    between atoms: _412  and  _414
REMARK  176  A    between atoms: _414  and  _415
REMARK  177  A    between atoms: _414  and  _417
REMARK  178  A    between atoms: _417  and  _418
REMARK  179  A    between atoms: _420  and  _422
REMARK  180  A    between atoms: _422  and  _423
REMARK  181  A    between atoms: _422  and  _425
REMARK  182  A    between atoms: _425  and  _426
REMARK  183  A    between atoms: _429  and  _431
REMARK  184  A    between atoms: _431  and  _432
REMARK  185  A    between atoms: _431  and  _434
REMARK  186  A    between atoms: _434  and  _435
REMARK  187  A    between atoms: _435  and  _436
REMARK  188  A    between atoms: _436  and  _437
REMARK  189  A    between atoms: _446  and  _448
REMARK  190  A    between atoms: _448  and  _449
REMARK  191  A    between atoms: _448  and  _451
REMARK  192  A    between atoms: _451  and  _452
REMARK  193  A    between atoms: _456  and  _457
REMARK  194  A    between atoms: _462  and  _464
REMARK  195  A    between atoms: _464  and  _465
REMARK  196  A    between atoms: _464  and  _467
REMARK  197  A    between atoms: _467  and  _468
REMARK  198  A    between atoms: _471  and  _473
REMARK  199  A    between atoms: _473  and  _474
REMARK  200  A    between atoms: _473  and  _476
REMARK  201  A    between atoms: _476  and  _477
REMARK  202  A    between atoms: _483  and  _484
REMARK  203  A    between atoms: _489  and  _491
REMARK  204  A    between atoms: _491  and  _492
REMARK  205  A    between atoms: _491  and  _494
REMARK  206  A    between atoms: _494  and  _495
REMARK  207  A    between atoms: _498  and  _500
REMARK  208  A    between atoms: _500  and  _501
REMARK  209  A    between atoms: _500  and  _503
REMARK  210  A    between atoms: _503  and  _504
REMARK  211  A    between atoms: _504  and  _505
REMARK  212  A    between atoms: _508  and  _510
REMARK  213  A    between atoms: _510  and  _511
REMARK  214  A    between atoms: _514  and  _516
REMARK  215  A    between atoms: _516  and  _517
REMARK  216  A    between atoms: _516  and  _519
REMARK                            x       y       z     vdW  Elec       q    Type
REMARK                         _______ _______ _______ _____ _____    ______ ____
ROOT
ATOM      1  O   HOH     1      10.267  30.550  18.480  0.00  0.00    +0.000 OA
ENDROOT
TORSDOF 0
REMARK  Name = ../refined-set-2016/1atr/1atr_pocket.pdb
REMARK  216 active torsions:
REMARK  status: ('A' for Active; 'I' for Inactive)
REMARK    1  A    between atoms: _1  and  _3
REMARK    2  A    between atoms: _3  and  _4
REMARK    3  A    between atoms: _3  and  _6
REMARK    4  A    between atoms: _6  and  _7
REMARK    5  A    between atoms: _10  and  _12
REMARK    6  A    between atoms: _12  and  _13
REMARK    7  A    between atoms: _12  and  _15
REMARK    8  A    between atoms: _15  and  _16
REMARK    9  A    between atoms: _19  and  _21
REMARK   10  A    between atoms: _21  and  _22
REMARK   11  A    between atoms: _24  and  _26
REMARK   12  A    between atoms: _26  and  _27
REMARK   13  A    between atoms: _26  and  _29
REMARK   14  A    between atoms: _29  and  _30
REMARK   15  A    between atoms: _33  and  _35
REMARK   16  A    between atoms: _35  and  _36
REMARK   17  A    between atoms: _35  and  _38
REMARK   18  A    between atoms: _38  and  _39
REMARK   19  A    between atoms: _42  and  _44
REMARK   20  A    between atoms: _44  and  _45
REMARK   21  A    between atoms: _44  and  _47
REMARK   22  A    between atoms: _47  and  _48
REMARK   23  A    between atoms: _53  and  _54
REMARK   24  A    between atoms: _56  and  _58
REMARK   25  A    between atoms: _58  and  _59
REMARK   26  A    between atoms: _58  and  _61
REMARK   27  A    between atoms: _61  and  _62
REMARK   28  A    between atoms: _64  and  _66
REMARK   29  A    between atoms: _66  and  _67
REMARK   30  A    between atoms: _66  and  _69
REMARK   31  A    between atoms: _71  and  _73
REMARK   32  A    between atoms: _73  and  _74
REMARK   33  A    between atoms: _73  and  _76
REMARK   34  A    between atoms: _76  and  _77
REMARK   35  A    between atoms: _80  and  _82
REMARK   36  A    between atoms: _82  and  _83
REMARK   37  A    between atoms: _82  and  _85
REMARK   38  A    between atoms: _85  and  _86
REMARK   39  A    between atoms: _90  and  _91
REMARK   40  A    between atoms: _96  and  _98
REMARK   41  A    between atoms: _98  and  _99
REMARK   42  A    between atoms: _98  and  _101
REMARK   43  A    between atoms: _101  and  _102
REMARK   44  A    between atoms: _104  and  _106
REMARK   45  A    between atoms: _106  and  _107
REMARK   46  A    between atoms: _106  and  _109
REMARK   47  A    between atoms: _109  and  _110
REMARK   48  A    between atoms: _110  and  _111
REMARK   49  A    between atoms: _111  and  _112
REMARK   50  A    between atoms: _112  and  _113
REMARK   51  A    between atoms: _117  and  _119
REMARK   52  A    between atoms: _119  and  _120
REMARK   53  A    between atoms: _119  and  _122
REMARK   54  A    between atoms: _122  and  _123
REMARK   55  A    between atoms: _126  and  _128
REMARK   56  A    between atoms: _128  and  _129
REMARK   57  A    between atoms: _128  and  _131
REMARK   58  A    between atoms: _131  and  _132
REMARK   59  A    between atoms: _132  and  _133
REMARK   60  A    between atoms: _133  and  _134
REMARK   61  A    between atoms: _134  and  _135
REMARK   62  A    between atoms: _139  and  _141
REMARK   63  A    between atoms: _141  and  _142
REMARK   64  A    between atoms: _141  and  _144
REMARK   65  A    between atoms: _144  and  _145
REMARK   66  A    between atoms: _145  and  _146
REMARK   67  A    between atoms: _146  and  _147
REMARK   68  A    between atoms: _156  and  _158
REMARK   69  A    between atoms: _158  and  _159
REMARK   70  A    between atoms: _158  and  _161
REMARK   71  A    between atoms: _161  and  _162
REMARK   72  A    between atoms: _162  and  _163
REMARK   73  A    between atoms: _166  and  _168
REMARK   74  A    between atoms: _168  and  _169
REMARK   75  A    between atoms: _168  and  _171
REMARK   76  A    between atoms: _171  and  _172
REMARK   77  A    between atoms: _175  and  _177
REMARK   78  A    between atoms: _177  and  _178
REMARK   79  A    between atoms: _177  and  _180
REMARK   80  A    between atoms: _180  and  _181
REMARK   81  A    between atoms: _184  and  _186
REMARK   82  A    between atoms: _186  and  _187
REMARK   83  A    between atoms: _189  and  _191
REMARK   84  A    between atoms: _191  and  _192
REMARK   85  A    between atoms: _194  and  _196
REMARK   86  A    between atoms: _196  and  _197
REMARK   87  A    between atoms: _199  and  _201
REMARK   88  A    between atoms: _201  and  _202
REMARK   89  A    between atoms: _201  and  _204
REMARK   90  A    between atoms: _207  and  _209
REMARK   91  A    between atoms: _209  and  _210
REMARK   92  A    between atoms: _209  and  _212
REMARK   93  A    between atoms: _212  and  _213
REMARK   94  A    between atoms: _219  and  _221
REMARK   95  A    between atoms: _221  and  _222
REMARK   96  A    between atoms: _221  and  _224
REMARK   97  A    between atoms: _224  and  _225
REMARK   98  A    between atoms: _228  and  _230
REMARK   99  A    between atoms: _230  and  _231
REMARK  100  A    between atoms: _233  and  _235
REMARK  101  A    between atoms: _235  and  _236
REMARK  102  A    between atoms: _238  and  _240
REMARK  103  A    between atoms: _240  and  _241
REMARK  104  A    between atoms: _240  and  _243
REMARK  105  A    between atoms: _243  and  _244
REMARK  106  A    between atoms: _244  and  _245
REMARK  107  A    between atoms: _248  and  _250
REMARK  108  A    between atoms: _250  and  _251
REMARK  109  A    between atoms: _250  and  _253
REMARK  110  A    between atoms: _253  and  _254
REMARK  111  A    between atoms: _257  and  _259
REMARK  112  A    between atoms: _259  and  _260
REMARK  113  A    between atoms: _259  and  _262
REMARK  114  A    between atoms: _262  and  _263
REMARK  115  A    between atoms: _269  and  _271
REMARK  116  A    between atoms: _271  and  _272
REMARK  117  A    between atoms: _271  and  _274
REMARK  118  A    between atoms: _274  and  _275
REMARK  119  A    between atoms: _278  and  _280
REMARK  120  A    between atoms: _280  and  _281
REMARK  121  A    between atoms: _280  and  _283
REMARK  122  A    between atoms: _285  and  _287
REMARK  123  A    between atoms: _287  and  _288
REMARK  124  A    between atoms: _287  and  _290
REMARK  125  A    between atoms: _290  and  _291
REMARK  126  A    between atoms: _291  and  _292
REMARK  127  A    between atoms: _295  and  _297
REMARK  128  A    between atoms: _297  and  _298
REMARK  129  A    between atoms: _297  and  _300
REMARK  130  A    between atoms: _300  and  _301
REMARK  131  A    between atoms: _301  and  _302
REMARK  132  A    between atoms: _302  and  _303
REMARK  133  A    between atoms: _312  and  _314
REMARK  134  A    between atoms: _314  and  _315
REMARK  135  A    between atoms: _318  and  _320
REMARK  136  A    between atoms: _320  and  _321
REMARK  137  A    between atoms: _320  and  _323
REMARK  138  A    between atoms: _323  and  _324
REMARK  139  A    between atoms: _324  and  _325
REMARK  140  A    between atoms: _325  and  _326
REMARK  141  A    between atoms: _326  and  _327
REMARK  142  A    between atoms: _331  and  _333
REMARK  143  A    between atoms: _333  and  _334
REMARK  144  A    between atoms: _333  and  _336
REMARK  145  A    between atoms: _336  and  _337
REMARK  146  A    between atoms: _337  and  _338
REMARK  147  A    between atoms: _338  and  _339
REMARK  148  A    between atoms: _348  and  _350
REMARK  149  A    between atoms: _350  and  _351
REMARK  150  A    between atoms: _350  and  _353
REMARK  151  A    between atoms: _353  and  _354
REMARK  152  A    between atoms: _357  and  _359
REMARK  153  A    between atoms: _359  and  _360
REMARK  154  A    between atoms: _359  and  _362
REMARK  155  A    between atoms: _362  and  _363
REMARK  156  A    between atoms: _366  and  _368
REMARK  157  A    between atoms: _368  and  _369
REMARK  158  A    between atoms: _368  and  _371
REMARK  159  A    between atoms: _371  and  _372
REMARK  160  A    between atoms: _374  and  _376
REMARK  161  A    between atoms: _376  and  _377
REMARK  162  A    between atoms: _376  and  _379
REMARK  163  A    between atoms: _379  and  _380
REMARK  164  A    between atoms: _382  and  _384
REMARK  165  A    between atoms: _384  and  _385
REMARK  166  A    between atoms: _384  and  _387
REMARK  167  A    between atoms: _387  and  _388
REMARK  168  A    between atoms: _394  and  _396
REMARK  169  A    between atoms: _396  and  _397
REMARK  170  A    between atoms: _396  and  _399
REMARK  171  A    between atoms: _402  and  _404
REMARK  172  A    between atoms: _404  and  _405
REMARK  173  A    between atoms: _407  and  _409
REMARK  174  A    between atoms: _409  and  _410
REMARK  175  A    between atoms: _412  and  _414
REMARK  176  A    between atoms: _414  and  _415
REMARK  177  A    between atoms: _414  and  _417
REMARK  178  A    between atoms: _417  and  _418
REMARK  179  A    between atoms: _420  and  _422
REMARK  180  A    between atoms: _422  and  _423
REMARK  181  A    between atoms: _422  and  _425
REMARK  182  A    between atoms: _425  and  _426
REMARK  183  A    between atoms: _429  and  _431
REMARK  184  A    between atoms: _431  and  _432
REMARK  185  A    between atoms: _431  and  _434
REMARK  186  A    between atoms: _434  and  _435
REMARK  187  A    between atoms: _435  and  _436
REMARK  188  A    between atoms: _436  and  _437
REMARK  189  A    between atoms: _446  and  _448
REMARK  190  A    between atoms: _448  and  _449
REMARK  191  A    between atoms: _448  and  _451
REMARK  192  A    between atoms: _451  and  _452
REMARK  193  A    between atoms: _456  and  _457
REMARK  194  A    between atoms: _462  and  _464
REMARK  195  A    between atoms: _464  and  _465
REMARK  196  A    between atoms: _464  and  _467
REMARK  197  A    between atoms: _467  and  _468
REMARK  198  A    between atoms: _471  and  _473
REMARK  199  A    between atoms: _473  and  _474
REMARK  200  A    between atoms: _473  and  _476
REMARK  201  A    between atoms: _476  and  _477
REMARK  202  A    between atoms: _483  and  _484
REMARK  203  A    between atoms: _489  and  _491
REMARK  204  A    between atoms: _491  and  _492
REMARK  205  A    between atoms: _491  and  _494
REMARK  206  A    between atoms: _494  and  _495
REMARK  207  A    between atoms: _498  and  _500
REMARK  208  A    between atoms: _500  and  _501
REMARK  209  A    between atoms: _500  and  _503
REMARK  210  A    between atoms: _503  and  _504
REMARK  211  A    between atoms: _504  and  _505
REMARK  212  A    between atoms: _508  and  _510
REMARK  213  A    between atoms: _510  and  _511
REMARK  214  A    between atoms: _514  and  _516
REMARK  215  A    between atoms: _516  and  _517
REMARK  216  A    between atoms: _516  and  _519
REMARK                            x       y       z     vdW  Elec       q    Type
REMARK                         _______ _______ _______ _____ _____    ______ ____
ROOT
ATOM      1  O   HOH     1      16.780  22.200  20.804  0.00  0.00    +0.000 OA
ENDROOT
TORSDOF 0
REMARK  Name = ../refined-set-2016/1atr/1atr_pocket.pdb
REMARK  216 active torsions:
REMARK  status: ('A' for Active; 'I' for Inactive)
REMARK    1  A    between atoms: _1  and  _3
REMARK    2  A    between atoms: _3  and  _4
REMARK    3  A    between atoms: _3  and  _6
REMARK    4  A    between atoms: _6  and  _7
REMARK    5  A    between atoms: _10  and  _12
REMARK    6  A    between atoms: _12  and  _13
REMARK    7  A    between atoms: _12  and  _15
REMARK    8  A    between atoms: _15  and  _16
REMARK    9  A    between atoms: _19  and  _21
REMARK   10  A    between atoms: _21  and  _22
REMARK   11  A    between atoms: _24  and  _26
REMARK   12  A    between atoms: _26  and  _27
REMARK   13  A    between atoms: _26  and  _29
REMARK   14  A    between atoms: _29  and  _30
REMARK   15  A    between atoms: _33  and  _35
REMARK   16  A    between atoms: _35  and  _36
REMARK   17  A    between atoms: _35  and  _38
REMARK   18  A    between atoms: _38  and  _39
REMARK   19  A    between atoms: _42  and  _44
REMARK   20  A    between atoms: _44  and  _45
REMARK   21  A    between atoms: _44  and  _47
REMARK   22  A    between atoms: _47  and  _48
REMARK   23  A    between atoms: _53  and  _54
REMARK   24  A    between atoms: _56  and  _58
REMARK   25  A    between atoms: _58  and  _59
REMARK   26  A    between atoms: _58  and  _61
REMARK   27  A    between atoms: _61  and  _62
REMARK   28  A    between atoms: _64  and  _66
REMARK   29  A    between atoms: _66  and  _67
REMARK   30  A    between atoms: _66  and  _69
REMARK   31  A    between atoms: _71  and  _73
REMARK   32  A    between atoms: _73  and  _74
REMARK   33  A    between atoms: _73  and  _76
REMARK   34  A    between atoms: _76  and  _77
REMARK   35  A    between atoms: _80  and  _82
REMARK   36  A    between atoms: _82  and  _83
REMARK   37  A    between atoms: _82  and  _85
REMARK   38  A    between atoms: _85  and  _86
REMARK   39  A    between atoms: _90  and  _91
REMARK   40  A    between atoms: _96  and  _98
REMARK   41  A    between atoms: _98  and  _99
REMARK   42  A    between atoms: _98  and  _101
REMARK   43  A    between atoms: _101  and  _102
REMARK   44  A    between atoms: _104  and  _106
REMARK   45  A    between atoms: _106  and  _107
REMARK   46  A    between atoms: _106  and  _109
REMARK   47  A    between atoms: _109  and  _110
REMARK   48  A    between atoms: _110  and  _111
REMARK   49  A    between atoms: _111  and  _112
REMARK   50  A    between atoms: _112  and  _113
REMARK   51  A    between atoms: _117  and  _119
REMARK   52  A    between atoms: _119  and  _120
REMARK   53  A    between atoms: _119  and  _122
REMARK   54  A    between atoms: _122  and  _123
REMARK   55  A    between atoms: _126  and  _128
REMARK   56  A    between atoms: _128  and  _129
REMARK   57  A    between atoms: _128  and  _131
REMARK   58  A    between atoms: _131  and  _132
REMARK   59  A    between atoms: _132  and  _133
REMARK   60  A    between atoms: _133  and  _134
REMARK   61  A    between atoms: _134  and  _135
REMARK   62  A    between atoms: _139  and  _141
REMARK   63  A    between atoms: _141  and  _142
REMARK   64  A    between atoms: _141  and  _144
REMARK   65  A    between atoms: _144  and  _145
REMARK   66  A    between atoms: _145  and  _146
REMARK   67  A    between atoms: _146  and  _147
REMARK   68  A    between atoms: _156  and  _158
REMARK   69  A    between atoms: _158  and  _159
REMARK   70  A    between atoms: _158  and  _161
REMARK   71  A    between atoms: _161  and  _162
REMARK   72  A    between atoms: _162  and  _163
REMARK   73  A    between atoms: _166  and  _168
REMARK   74  A    between atoms: _168  and  _169
REMARK   75  A    between atoms: _168  and  _171
REMARK   76  A    between atoms: _171  and  _172
REMARK   77  A    between atoms: _175  and  _177
REMARK   78  A    between atoms: _177  and  _178
REMARK   79  A    between atoms: _177  and  _180
REMARK   80  A    between atoms: _180  and  _181
REMARK   81  A    between atoms: _184  and  _186
REMARK   82  A    between atoms: _186  and  _187
REMARK   83  A    between atoms: _189  and  _191
REMARK   84  A    between atoms: _191  and  _192
REMARK   85  A    between atoms: _194  and  _196
REMARK   86  A    between atoms: _196  and  _197
REMARK   87  A    between atoms: _199  and  _201
REMARK   88  A    between atoms: _201  and  _202
REMARK   89  A    between atoms: _201  and  _204
REMARK   90  A    between atoms: _207  and  _209
REMARK   91  A    between atoms: _209  and  _210
REMARK   92  A    between atoms: _209  and  _212
REMARK   93  A    between atoms: _212  and  _213
REMARK   94  A    between atoms: _219  and  _221
REMARK   95  A    between atoms: _221  and  _222
REMARK   96  A    between atoms: _221  and  _224
REMARK   97  A    between atoms: _224  and  _225
REMARK   98  A    between atoms: _228  and  _230
REMARK   99  A    between atoms: _230  and  _231
REMARK  100  A    between atoms: _233  and  _235
REMARK  101  A    between atoms: _235  and  _236
REMARK  102  A    between atoms: _238  and  _240
REMARK  103  A    between atoms: _240  and  _241
REMARK  104  A    between atoms: _240  and  _243
REMARK  105  A    between atoms: _243  and  _244
REMARK  106  A    between atoms: _244  and  _245
REMARK  107  A    between atoms: _248  and  _250
REMARK  108  A    between atoms: _250  and  _251
REMARK  109  A    between atoms: _250  and  _253
REMARK  110  A    between atoms: _253  and  _254
REMARK  111  A    between atoms: _257  and  _259
REMARK  112  A    between atoms: _259  and  _260
REMARK  113  A    between atoms: _259  and  _262
REMARK  114  A    between atoms: _262  and  _263
REMARK  115  A    between atoms: _269  and  _271
REMARK  116  A    between atoms: _271  and  _272
REMARK  117  A    between atoms: _271  and  _274
REMARK  118  A    between atoms: _274  and  _275
REMARK  119  A    between atoms: _278  and  _280
REMARK  120  A    between atoms: _280  and  _281
REMARK  121  A    between atoms: _280  and  _283
REMARK  122  A    between atoms: _285  and  _287
REMARK  123  A    between atoms: _287  and  _288
REMARK  124  A    between atoms: _287  and  _290
REMARK  125  A    between atoms: _290  and  _291
REMARK  126  A    between atoms: _291  and  _292
REMARK  127  A    between atoms: _295  and  _297
REMARK  128  A    between atoms: _297  and  _298
REMARK  129  A    between atoms: _297  and  _300
REMARK  130  A    between atoms: _300  and  _301
REMARK  131  A    between atoms: _301  and  _302
REMARK  132  A    between atoms: _302  and  _303
REMARK  133  A    between atoms: _312  and  _314
REMARK  134  A    between atoms: _314  and  _315
REMARK  135  A    between atoms: _318  and  _320
REMARK  136  A    between atoms: _320  and  _321
REMARK  137  A    between atoms: _320  and  _323
REMARK  138  A    between atoms: _323  and  _324
REMARK  139  A    between atoms: _324  and  _325
REMARK  140  A    between atoms: _325  and  _326
REMARK  141  A    between atoms: _326  and  _327
REMARK  142  A    between atoms: _331  and  _333
REMARK  143  A    between atoms: _333  and  _334
REMARK  144  A    between atoms: _333  and  _336
REMARK  145  A    between atoms: _336  and  _337
REMARK  146  A    between atoms: _337  and  _338
REMARK  147  A    between atoms: _338  and  _339
REMARK  148  A    between atoms: _348  and  _350
REMARK  149  A    between atoms: _350  and  _351
REMARK  150  A    between atoms: _350  and  _353
REMARK  151  A    between atoms: _353  and  _354
REMARK  152  A    between atoms: _357  and  _359
REMARK  153  A    between atoms: _359  and  _360
REMARK  154  A    between atoms: _359  and  _362
REMARK  155  A    between atoms: _362  and  _363
REMARK  156  A    between atoms: _366  and  _368
REMARK  157  A    between atoms: _368  and  _369
REMARK  158  A    between atoms: _368  and  _371
REMARK  159  A    between atoms: _371  and  _372
REMARK  160  A    between atoms: _374  and  _376
REMARK  161  A    between atoms: _376  and  _377
REMARK  162  A    between atoms: _376  and  _379
REMARK  163  A    between atoms: _379  and  _380
REMARK  164  A    between atoms: _382  and  _384
REMARK  165  A    between atoms: _384  and  _385
REMARK  166  A    between atoms: _384  and  _387
REMARK  167  A    between atoms: _387  and  _388
REMARK  168  A    between atoms: _394  and  _396
REMARK  169  A    between atoms: _396  and  _397
REMARK  170  A    between atoms: _396  and  _399
REMARK  171  A    between atoms: _402  and  _404
REMARK  172  A    between atoms: _404  and  _405
REMARK  173  A    between atoms: _407  and  _409
REMARK  174  A    between atoms: _409  and  _410
REMARK  175  A    between atoms: _412  and  _414
REMARK  176  A    between atoms: _414  and  _415
REMARK  177  A    between atoms: _414  and  _417
REMARK  178  A    between atoms: _417  and  _418
REMARK  179  A    between atoms: _420  and  _422
REMARK  180  A    between atoms: _422  and  _423
REMARK  181  A    between atoms: _422  and  _425
REMARK  182  A    between atoms: _425  and  _426
REMARK  183  A    between atoms: _429  and  _431
REMARK  184  A    between atoms: _431  and  _432
REMARK  185  A    between atoms: _431  and  _434
REMARK  186  A    between atoms: _434  and  _435
REMARK  187  A    between atoms: _435  and  _436
REMARK  188  A    between atoms: _436  and  _437
REMARK  189  A    between atoms: _446  and  _448
REMARK  190  A    between atoms: _448  and  _449
REMARK  191  A    between atoms: _448  and  _451
REMARK  192  A    between atoms: _451  and  _452
REMARK  193  A    between atoms: _456  and  _457
REMARK  194  A    between atoms: _462  and  _464
REMARK  195  A    between atoms: _464  and  _465
REMARK  196  A    between atoms: _464  and  _467
REMARK  197  A    between atoms: _467  and  _468
REMARK  198  A    between atoms: _471  and  _473
REMARK  199  A    between atoms: _473  and  _474
REMARK  200  A    between atoms: _473  and  _476
REMARK  201  A    between atoms: _476  and  _477
REMARK  202  A    between atoms: _483  and  _484
REMARK  203  A    between atoms: _489  and  _491
REMARK  204  A    between atoms: _491  and  _492
REMARK  205  A    between atoms: _491  and  _494
REMARK  206  A    between atoms: _494  and  _495
REMARK  207  A    between atoms: _498  and  _500
REMARK  208  A    between atoms: _500  and  _501
REMARK  209  A    between atoms: _500  and  _503
REMARK  210  A    between atoms: _503  and  _504
REMARK  211  A    between atoms: _504  and  _505
REMARK  212  A    between atoms: _508  and  _510
REMARK  213  A    between atoms: _510  and  _511
REMARK  214  A    between atoms: _514  and  _516
REMARK  215  A    between atoms: _516  and  _517
REMARK  216  A    between atoms: _516  and  _519
REMARK                            x       y       z     vdW  Elec       q    Type
REMARK                         _______ _______ _______ _____ _____    ______ ____
ROOT
ATOM      1  O   HOH     1      13.043  30.085  22.919  0.00  0.00    +0.000 OA
ENDROOT
TORSDOF 0
REMARK  Name = ../refined-set-2016/1atr/1atr_pocket.pdb
REMARK  216 active torsions:
REMARK  status: ('A' for Active; 'I' for Inactive)
REMARK    1  A    between atoms: _1  and  _3
REMARK    2  A    between atoms: _3  and  _4
REMARK    3  A    between atoms: _3  and  _6
REMARK    4  A    between atoms: _6  and  _7
REMARK    5  A    between atoms: _10  and  _12
REMARK    6  A    between atoms: _12  and  _13
REMARK    7  A    between atoms: _12  and  _15
REMARK    8  A    between atoms: _15  and  _16
REMARK    9  A    between atoms: _19  and  _21
REMARK   10  A    between atoms: _21  and  _22
REMARK   11  A    between atoms: _24  and  _26
REMARK   12  A    between atoms: _26  and  _27
REMARK   13  A    between atoms: _26  and  _29
REMARK   14  A    between atoms: _29  and  _30
REMARK   15  A    between atoms: _33  and  _35
REMARK   16  A    between atoms: _35  and  _36
REMARK   17  A    between atoms: _35  and  _38
REMARK   18  A    between atoms: _38  and  _39
REMARK   19  A    between atoms: _42  and  _44
REMARK   20  A    between atoms: _44  and  _45
REMARK   21  A    between atoms: _44  and  _47
REMARK   22  A    between atoms: _47  and  _48
REMARK   23  A    between atoms: _53  and  _54
REMARK   24  A    between atoms: _56  and  _58
REMARK   25  A    between atoms: _58  and  _59
REMARK   26  A    between atoms: _58  and  _61
REMARK   27  A    between atoms: _61  and  _62
REMARK   28  A    between atoms: _64  and  _66
REMARK   29  A    between atoms: _66  and  _67
REMARK   30  A    between atoms: _66  and  _69
REMARK   31  A    between atoms: _71  and  _73
REMARK   32  A    between atoms: _73  and  _74
REMARK   33  A    between atoms: _73  and  _76
REMARK   34  A    between atoms: _76  and  _77
REMARK   35  A    between atoms: _80  and  _82
REMARK   36  A    between atoms: _82  and  _83
REMARK   37  A    between atoms: _82  and  _85
REMARK   38  A    between atoms: _85  and  _86
REMARK   39  A    between atoms: _90  and  _91
REMARK   40  A    between atoms: _96  and  _98
REMARK   41  A    between atoms: _98  and  _99
REMARK   42  A    between atoms: _98  and  _101
REMARK   43  A    between atoms: _101  and  _102
REMARK   44  A    between atoms: _104  and  _106
REMARK   45  A    between atoms: _106  and  _107
REMARK   46  A    between atoms: _106  and  _109
REMARK   47  A    between atoms: _109  and  _110
REMARK   48  A    between atoms: _110  and  _111
REMARK   49  A    between atoms: _111  and  _112
REMARK   50  A    between atoms: _112  and  _113
REMARK   51  A    between atoms: _117  and  _119
REMARK   52  A    between atoms: _119  and  _120
REMARK   53  A    between atoms: _119  and  _122
REMARK   54  A    between atoms: _122  and  _123
REMARK   55  A    between atoms: _126  and  _128
REMARK   56  A    between atoms: _128  and  _129
REMARK   57  A    between atoms: _128  and  _131
REMARK   58  A    between atoms: _131  and  _132
REMARK   59  A    between atoms: _132  and  _133
REMARK   60  A    between atoms: _133  and  _134
REMARK   61  A    between atoms: _134  and  _135
REMARK   62  A    between atoms: _139  and  _141
REMARK   63  A    between atoms: _141  and  _142
REMARK   64  A    between atoms: _141  and  _144
REMARK   65  A    between atoms: _144  and  _145
REMARK   66  A    between atoms: _145  and  _146
REMARK   67  A    between atoms: _146  and  _147
REMARK   68  A    between atoms: _156  and  _158
REMARK   69  A    between atoms: _158  and  _159
REMARK   70  A    between atoms: _158  and  _161
REMARK   71  A    between atoms: _161  and  _162
REMARK   72  A    between atoms: _162  and  _163
REMARK   73  A    between atoms: _166  and  _168
REMARK   74  A    between atoms: _168  and  _169
REMARK   75  A    between atoms: _168  and  _171
REMARK   76  A    between atoms: _171  and  _172
REMARK   77  A    between atoms: _175  and  _177
REMARK   78  A    between atoms: _177  and  _178
REMARK   79  A    between atoms: _177  and  _180
REMARK   80  A    between atoms: _180  and  _181
REMARK   81  A    between atoms: _184  and  _186
REMARK   82  A    between atoms: _186  and  _187
REMARK   83  A    between atoms: _189  and  _191
REMARK   84  A    between atoms: _191  and  _192
REMARK   85  A    between atoms: _194  and  _196
REMARK   86  A    between atoms: _196  and  _197
REMARK   87  A    between atoms: _199  and  _201
REMARK   88  A    between atoms: _201  and  _202
REMARK   89  A    between atoms: _201  and  _204
REMARK   90  A    between atoms: _207  and  _209
REMARK   91  A    between atoms: _209  and  _210
REMARK   92  A    between atoms: _209  and  _212
REMARK   93  A    between atoms: _212  and  _213
REMARK   94  A    between atoms: _219  and  _221
REMARK   95  A    between atoms: _221  and  _222
REMARK   96  A    between atoms: _221  and  _224
REMARK   97  A    between atoms: _224  and  _225
REMARK   98  A    between atoms: _228  and  _230
REMARK   99  A    between atoms: _230  and  _231
REMARK  100  A    between atoms: _233  and  _235
REMARK  101  A    between atoms: _235  and  _236
REMARK  102  A    between atoms: _238  and  _240
REMARK  103  A    between atoms: _240  and  _241
REMARK  104  A    between atoms: _240  and  _243
REMARK  105  A    between atoms: _243  and  _244
REMARK  106  A    between atoms: _244  and  _245
REMARK  107  A    between atoms: _248  and  _250
REMARK  108  A    between atoms: _250  and  _251
REMARK  109  A    between atoms: _250  and  _253
REMARK  110  A    between atoms: _253  and  _254
REMARK  111  A    between atoms: _257  and  _259
REMARK  112  A    between atoms: _259  and  _260
REMARK  113  A    between atoms: _259  and  _262
REMARK  114  A    between atoms: _262  and  _263
REMARK  115  A    between atoms: _269  and  _271
REMARK  116  A    between atoms: _271  and  _272
REMARK  117  A    between atoms: _271  and  _274
REMARK  118  A    between atoms: _274  and  _275
REMARK  119  A    between atoms: _278  and  _280
REMARK  120  A    between atoms: _280  and  _281
REMARK  121  A    between atoms: _280  and  _283
REMARK  122  A    between atoms: _285  and  _287
REMARK  123  A    between atoms: _287  and  _288
REMARK  124  A    between atoms: _287  and  _290
REMARK  125  A    between atoms: _290  and  _291
REMARK  126  A    between atoms: _291  and  _292
REMARK  127  A    between atoms: _295  and  _297
REMARK  128  A    between atoms: _297  and  _298
REMARK  129  A    between atoms: _297  and  _300
REMARK  130  A    between atoms: _300  and  _301
REMARK  131  A    between atoms: _301  and  _302
REMARK  132  A    between atoms: _302  and  _303
REMARK  133  A    between atoms: _312  and  _314
REMARK  134  A    between atoms: _314  and  _315
REMARK  135  A    between atoms: _318  and  _320
REMARK  136  A    between atoms: _320  and  _321
REMARK  137  A    between atoms: _320  and  _323
REMARK  138  A    between atoms: _323  and  _324
REMARK  139  A    between atoms: _324  and  _325
REMARK  140  A    between atoms: _325  and  _326
REMARK  141  A    between atoms: _326  and  _327
REMARK  142  A    between atoms: _331  and  _333
REMARK  143  A    between atoms: _333  and  _334
REMARK  144  A    between atoms: _333  and  _336
REMARK  145  A    between atoms: _336  and  _337
REMARK  146  A    between atoms: _337  and  _338
REMARK  147  A    between atoms: _338  and  _339
REMARK  148  A    between atoms: _348  and  _350
REMARK  149  A    between atoms: _350  and  _351
REMARK  150  A    between atoms: _350  and  _353
REMARK  151  A    between atoms: _353  and  _354
REMARK  152  A    between atoms: _357  and  _359
REMARK  153  A    between atoms: _359  and  _360
REMARK  154  A    between atoms: _359  and  _362
REMARK  155  A    between atoms: _362  and  _363
REMARK  156  A    between atoms: _366  and  _368
REMARK  157  A    between atoms: _368  and  _369
REMARK  158  A    between atoms: _368  and  _371
REMARK  159  A    between atoms: _371  and  _372
REMARK  160  A    between atoms: _374  and  _376
REMARK  161  A    between atoms: _376  and  _377
REMARK  162  A    between atoms: _376  and  _379
REMARK  163  A    between atoms: _379  and  _380
REMARK  164  A    between atoms: _382  and  _384
REMARK  165  A    between atoms: _384  and  _385
REMARK  166  A    between atoms: _384  and  _387
REMARK  167  A    between atoms: _387  and  _388
REMARK  168  A    between atoms: _394  and  _396
REMARK  169  A    between atoms: _396  and  _397
REMARK  170  A    between atoms: _396  and  _399
REMARK  171  A    between atoms: _402  and  _404
REMARK  172  A    between atoms: _404  and  _405
REMARK  173  A    between atoms: _407  and  _409
REMARK  174  A    between atoms: _409  and  _410
REMARK  175  A    between atoms: _412  and  _414
REMARK  176  A    between atoms: _414  and  _415
REMARK  177  A    between atoms: _414  and  _417
REMARK  178  A    between atoms: _417  and  _418
REMARK  179  A    between atoms: _420  and  _422
REMARK  180  A    between atoms: _422  and  _423
REMARK  181  A    between atoms: _422  and  _425
REMARK  182  A    between atoms: _425  and  _426
REMARK  183  A    between atoms: _429  and  _431
REMARK  184  A    between atoms: _431  and  _432
REMARK  185  A    between atoms: _431  and  _434
REMARK  186  A    between atoms: _434  and  _435
REMARK  187  A    between atoms: _435  and  _436
REMARK  188  A    between atoms: _436  and  _437
REMARK  189  A    between atoms: _446  and  _448
REMARK  190  A    between atoms: _448  and  _449
REMARK  191  A    between atoms: _448  and  _451
REMARK  192  A    between atoms: _451  and  _452
REMARK  193  A    between atoms: _456  and  _457
REMARK  194  A    between atoms: _462  and  _464
REMARK  195  A    between atoms: _464  and  _465
REMARK  196  A    between atoms: _464  and  _467
REMARK  197  A    between atoms: _467  and  _468
REMARK  198  A    between atoms: _471  and  _473
REMARK  199  A    between atoms: _473  and  _474
REMARK  200  A    between atoms: _473  and  _476
REMARK  201  A    between atoms: _476  and  _477
REMARK  202  A    between atoms: _483  and  _484
REMARK  203  A    between atoms: _489  and  _491
REMARK  204  A    between atoms: _491  and  _492
REMARK  205  A    between atoms: _491  and  _494
REMARK  206  A    between atoms: _494  and  _495
REMARK  207  A    between atoms: _498  and  _500
REMARK  208  A    between atoms: _500  and  _501
REMARK  209  A    between atoms: _500  and  _503
REMARK  210  A    between atoms: _503  and  _504
REMARK  211  A    between atoms: _504  and  _505
REMARK  212  A    between atoms: _508  and  _510
REMARK  213  A    between atoms: _510  and  _511
REMARK  214  A    between atoms: _514  and  _516
REMARK  215  A    between atoms: _516  and  _517
REMARK  216  A    between atoms: _516  and  _519
REMARK                            x       y       z     vdW  Elec       q    Type
REMARK                         _______ _______ _______ _____ _____    ______ ____
ROOT
ATOM      1  O   HOH     1      19.419  34.712  13.078  0.00  0.00    +0.000 OA
ENDROOT
TORSDOF 0
REMARK  Name = ../refined-set-2016/1atr/1atr_pocket.pdb
REMARK  216 active torsions:
REMARK  status: ('A' for Active; 'I' for Inactive)
REMARK    1  A    between atoms: _1  and  _3
REMARK    2  A    between atoms: _3  and  _4
REMARK    3  A    between atoms: _3  and  _6
REMARK    4  A    between atoms: _6  and  _7
REMARK    5  A    between atoms: _10  and  _12
REMARK    6  A    between atoms: _12  and  _13
REMARK    7  A    between atoms: _12  and  _15
REMARK    8  A    between atoms: _15  and  _16
REMARK    9  A    between atoms: _19  and  _21
REMARK   10  A    between atoms: _21  and  _22
REMARK   11  A    between atoms: _24  and  _26
REMARK   12  A    between atoms: _26  and  _27
REMARK   13  A    between atoms: _26  and  _29
REMARK   14  A    between atoms: _29  and  _30
REMARK   15  A    between atoms: _33  and  _35
REMARK   16  A    between atoms: _35  and  _36
REMARK   17  A    between atoms: _35  and  _38
REMARK   18  A    between atoms: _38  and  _39
REMARK   19  A    between atoms: _42  and  _44
REMARK   20  A    between atoms: _44  and  _45
REMARK   21  A    between atoms: _44  and  _47
REMARK   22  A    between atoms: _47  and  _48
REMARK   23  A    between atoms: _53  and  _54
REMARK   24  A    between atoms: _56  and  _58
REMARK   25  A    between atoms: _58  and  _59
REMARK   26  A    between atoms: _58  and  _61
REMARK   27  A    between atoms: _61  and  _62
REMARK   28  A    between atoms: _64  and  _66
REMARK   29  A    between atoms: _66  and  _67
REMARK   30  A    between atoms: _66  and  _69
REMARK   31  A    between atoms: _71  and  _73
REMARK   32  A    between atoms: _73  and  _74
REMARK   33  A    between atoms: _73  and  _76
REMARK   34  A    between atoms: _76  and  _77
REMARK   35  A    between atoms: _80  and  _82
REMARK   36  A    between atoms: _82  and  _83
REMARK   37  A    between atoms: _82  and  _85
REMARK   38  A    between atoms: _85  and  _86
REMARK   39  A    between atoms: _90  and  _91
REMARK   40  A    between atoms: _96  and  _98
REMARK   41  A    between atoms: _98  and  _99
REMARK   42  A    between atoms: _98  and  _101
REMARK   43  A    between atoms: _101  and  _102
REMARK   44  A    between atoms: _104  and  _106
REMARK   45  A    between atoms: _106  and  _107
REMARK   46  A    between atoms: _106  and  _109
REMARK   47  A    between atoms: _109  and  _110
REMARK   48  A    between atoms: _110  and  _111
REMARK   49  A    between atoms: _111  and  _112
REMARK   50  A    between atoms: _112  and  _113
REMARK   51  A    between atoms: _117  and  _119
REMARK   52  A    between atoms: _119  and  _120
REMARK   53  A    between atoms: _119  and  _122
REMARK   54  A    between atoms: _122  and  _123
REMARK   55  A    between atoms: _126  and  _128
REMARK   56  A    between atoms: _128  and  _129
REMARK   57  A    between atoms: _128  and  _131
REMARK   58  A    between atoms: _131  and  _132
REMARK   59  A    between atoms: _132  and  _133
REMARK   60  A    between atoms: _133  and  _134
REMARK   61  A    between atoms: _134  and  _135
REMARK   62  A    between atoms: _139  and  _141
REMARK   63  A    between atoms: _141  and  _142
REMARK   64  A    between atoms: _141  and  _144
REMARK   65  A    between atoms: _144  and  _145
REMARK   66  A    between atoms: _145  and  _146
REMARK   67  A    between atoms: _146  and  _147
REMARK   68  A    between atoms: _156  and  _158
REMARK   69  A    between atoms: _158  and  _159
REMARK   70  A    between atoms: _158  and  _161
REMARK   71  A    between atoms: _161  and  _162
REMARK   72  A    between atoms: _162  and  _163
REMARK   73  A    between atoms: _166  and  _168
REMARK   74  A    between atoms: _168  and  _169
REMARK   75  A    between atoms: _168  and  _171
REMARK   76  A    between atoms: _171  and  _172
REMARK   77  A    between atoms: _175  and  _177
REMARK   78  A    between atoms: _177  and  _178
REMARK   79  A    between atoms: _177  and  _180
REMARK   80  A    between atoms: _180  and  _181
REMARK   81  A    between atoms: _184  and  _186
REMARK   82  A    between atoms: _186  and  _187
REMARK   83  A    between atoms: _189  and  _191
REMARK   84  A    between atoms: _191  and  _192
REMARK   85  A    between atoms: _194  and  _196
REMARK   86  A    between atoms: _196  and  _197
REMARK   87  A    between atoms: _199  and  _201
REMARK   88  A    between atoms: _201  and  _202
REMARK   89  A    between atoms: _201  and  _204
REMARK   90  A    between atoms: _207  and  _209
REMARK   91  A    between atoms: _209  and  _210
REMARK   92  A    between atoms: _209  and  _212
REMARK   93  A    between atoms: _212  and  _213
REMARK   94  A    between atoms: _219  and  _221
REMARK   95  A    between atoms: _221  and  _222
REMARK   96  A    between atoms: _221  and  _224
REMARK   97  A    between atoms: _224  and  _225
REMARK   98  A    between atoms: _228  and  _230
REMARK   99  A    between atoms: _230  and  _231
REMARK  100  A    between atoms: _233  and  _235
REMARK  101  A    between atoms: _235  and  _236
REMARK  102  A    between atoms: _238  and  _240
REMARK  103  A    between atoms: _240  and  _241
REMARK  104  A    between atoms: _240  and  _243
REMARK  105  A    between atoms: _243  and  _244
REMARK  106  A    between atoms: _244  and  _245
REMARK  107  A    between atoms: _248  and  _250
REMARK  108  A    between atoms: _250  and  _251
REMARK  109  A    between atoms: _250  and  _253
REMARK  110  A    between atoms: _253  and  _254
REMARK  111  A    between atoms: _257  and  _259
REMARK  112  A    between atoms: _259  and  _260
REMARK  113  A    between atoms: _259  and  _262
REMARK  114  A    between atoms: _262  and  _263
REMARK  115  A    between atoms: _269  and  _271
REMARK  116  A    between atoms: _271  and  _272
REMARK  117  A    between atoms: _271  and  _274
REMARK  118  A    between atoms: _274  and  _275
REMARK  119  A    between atoms: _278  and  _280
REMARK  120  A    between atoms: _280  and  _281
REMARK  121  A    between atoms: _280  and  _283
REMARK  122  A    between atoms: _285  and  _287
REMARK  123  A    between atoms: _287  and  _288
REMARK  124  A    between atoms: _287  and  _290
REMARK  125  A    between atoms: _290  and  _291
REMARK  126  A    between atoms: _291  and  _292
REMARK  127  A    between atoms: _295  and  _297
REMARK  128  A    between atoms: _297  and  _298
REMARK  129  A    between atoms: _297  and  _300
REMARK  130  A    between atoms: _300  and  _301
REMARK  131  A    between atoms: _301  and  _302
REMARK  132  A    between atoms: _302  and  _303
REMARK  133  A    between atoms: _312  and  _314
REMARK  134  A    between atoms: _314  and  _315
REMARK  135  A    between atoms: _318  and  _320
REMARK  136  A    between atoms: _320  and  _321
REMARK  137  A    between atoms: _320  and  _323
REMARK  138  A    between atoms: _323  and  _324
REMARK  139  A    between atoms: _324  and  _325
REMARK  140  A    between atoms: _325  and  _326
REMARK  141  A    between atoms: _326  and  _327
REMARK  142  A    between atoms: _331  and  _333
REMARK  143  A    between atoms: _333  and  _334
REMARK  144  A    between atoms: _333  and  _336
REMARK  145  A    between atoms: _336  and  _337
REMARK  146  A    between atoms: _337  and  _338
REMARK  147  A    between atoms: _338  and  _339
REMARK  148  A    between atoms: _348  and  _350
REMARK  149  A    between atoms: _350  and  _351
REMARK  150  A    between atoms: _350  and  _353
REMARK  151  A    between atoms: _353  and  _354
REMARK  152  A    between atoms: _357  and  _359
REMARK  153  A    between atoms: _359  and  _360
REMARK  154  A    between atoms: _359  and  _362
REMARK  155  A    between atoms: _362  and  _363
REMARK  156  A    between atoms: _366  and  _368
REMARK  157  A    between atoms: _368  and  _369
REMARK  158  A    between atoms: _368  and  _371
REMARK  159  A    between atoms: _371  and  _372
REMARK  160  A    between atoms: _374  and  _376
REMARK  161  A    between atoms: _376  and  _377
REMARK  162  A    between atoms: _376  and  _379
REMARK  163  A    between atoms: _379  and  _380
REMARK  164  A    between atoms: _382  and  _384
REMARK  165  A    between atoms: _384  and  _385
REMARK  166  A    between atoms: _384  and  _387
REMARK  167  A    between atoms: _387  and  _388
REMARK  168  A    between atoms: _394  and  _396
REMARK  169  A    between atoms: _396  and  _397
REMARK  170  A    between atoms: _396  and  _399
REMARK  171  A    between atoms: _402  and  _404
REMARK  172  A    between atoms: _404  and  _405
REMARK  173  A    between atoms: _407  and  _409
REMARK  174  A    between atoms: _409  and  _410
REMARK  175  A    between atoms: _412  and  _414
REMARK  176  A    between atoms: _414  and  _415
REMARK  177  A    between atoms: _414  and  _417
REMARK  178  A    between atoms: _417  and  _418
REMARK  179  A    between atoms: _420  and  _422
REMARK  180  A    between atoms: _422  and  _423
REMARK  181  A    between atoms: _422  and  _425
REMARK  182  A    between atoms: _425  and  _426
REMARK  183  A    between atoms: _429  and  _431
REMARK  184  A    between atoms: _431  and  _432
REMARK  185  A    between atoms: _431  and  _434
REMARK  186  A    between atoms: _434  and  _435
REMARK  187  A    between atoms: _435  and  _436
REMARK  188  A    between atoms: _436  and  _437
REMARK  189  A    between atoms: _446  and  _448
REMARK  190  A    between atoms: _448  and  _449
REMARK  191  A    between atoms: _448  and  _451
REMARK  192  A    between atoms: _451  and  _452
REMARK  193  A    between atoms: _456  and  _457
REMARK  194  A    between atoms: _462  and  _464
REMARK  195  A    between atoms: _464  and  _465
REMARK  196  A    between atoms: _464  and  _467
REMARK  197  A    between atoms: _467  and  _468
REMARK  198  A    between atoms: _471  and  _473
REMARK  199  A    between atoms: _473  and  _474
REMARK  200  A    between atoms: _473  and  _476
REMARK  201  A    between atoms: _476  and  _477
REMARK  202  A    between atoms: _483  and  _484
REMARK  203  A    between atoms: _489  and  _491
REMARK  204  A    between atoms: _491  and  _492
REMARK  205  A    between atoms: _491  and  _494
REMARK  206  A    between atoms: _494  and  _495
REMARK  207  A    between atoms: _498  and  _500
REMARK  208  A    between atoms: _500  and  _501
REMARK  209  A    between atoms: _500  and  _503
REMARK  210  A    between atoms: _503  and  _504
REMARK  211  A    between atoms: _504  and  _505
REMARK  212  A    between atoms: _508  and  _510
REMARK  213  A    between atoms: _510  and  _511
REMARK  214  A    between atoms: _514  and  _516
REMARK  215  A    between atoms: _516  and  _517
REMARK  216  A    between atoms: _516  and  _519
REMARK                            x       y       z     vdW  Elec       q    Type
REMARK                         _______ _______ _______ _____ _____    ______ ____
ROOT
ATOM      1  O   HOH     1      16.238  41.822  13.206  0.00  0.00    +0.000 OA
ENDROOT
TORSDOF 0
REMARK  Name = ../refined-set-2016/1atr/1atr_pocket.pdb
REMARK  216 active torsions:
REMARK  status: ('A' for Active; 'I' for Inactive)
REMARK    1  A    between atoms: _1  and  _3
REMARK    2  A    between atoms: _3  and  _4
REMARK    3  A    between atoms: _3  and  _6
REMARK    4  A    between atoms: _6  and  _7
REMARK    5  A    between atoms: _10  and  _12
REMARK    6  A    between atoms: _12  and  _13
REMARK    7  A    between atoms: _12  and  _15
REMARK    8  A    between atoms: _15  and  _16
REMARK    9  A    between atoms: _19  and  _21
REMARK   10  A    between atoms: _21  and  _22
REMARK   11  A    between atoms: _24  and  _26
REMARK   12  A    between atoms: _26  and  _27
REMARK   13  A    between atoms: _26  and  _29
REMARK   14  A    between atoms: _29  and  _30
REMARK   15  A    between atoms: _33  and  _35
REMARK   16  A    between atoms: _35  and  _36
REMARK   17  A    between atoms: _35  and  _38
REMARK   18  A    between atoms: _38  and  _39
REMARK   19  A    between atoms: _42  and  _44
REMARK   20  A    between atoms: _44  and  _45
REMARK   21  A    between atoms: _44  and  _47
REMARK   22  A    between atoms: _47  and  _48
REMARK   23  A    between atoms: _53  and  _54
REMARK   24  A    between atoms: _56  and  _58
REMARK   25  A    between atoms: _58  and  _59
REMARK   26  A    between atoms: _58  and  _61
REMARK   27  A    between atoms: _61  and  _62
REMARK   28  A    between atoms: _64  and  _66
REMARK   29  A    between atoms: _66  and  _67
REMARK   30  A    between atoms: _66  and  _69
REMARK   31  A    between atoms: _71  and  _73
REMARK   32  A    between atoms: _73  and  _74
REMARK   33  A    between atoms: _73  and  _76
REMARK   34  A    between atoms: _76  and  _77
REMARK   35  A    between atoms: _80  and  _82
REMARK   36  A    between atoms: _82  and  _83
REMARK   37  A    between atoms: _82  and  _85
REMARK   38  A    between atoms: _85  and  _86
REMARK   39  A    between atoms: _90  and  _91
REMARK   40  A    between atoms: _96  and  _98
REMARK   41  A    between atoms: _98  and  _99
REMARK   42  A    between atoms: _98  and  _101
REMARK   43  A    between atoms: _101  and  _102
REMARK   44  A    between atoms: _104  and  _106
REMARK   45  A    between atoms: _106  and  _107
REMARK   46  A    between atoms: _106  and  _109
REMARK   47  A    between atoms: _109  and  _110
REMARK   48  A    between atoms: _110  and  _111
REMARK   49  A    between atoms: _111  and  _112
REMARK   50  A    between atoms: _112  and  _113
REMARK   51  A    between atoms: _117  and  _119
REMARK   52  A    between atoms: _119  and  _120
REMARK   53  A    between atoms: _119  and  _122
REMARK   54  A    between atoms: _122  and  _123
REMARK   55  A    between atoms: _126  and  _128
REMARK   56  A    between atoms: _128  and  _129
REMARK   57  A    between atoms: _128  and  _131
REMARK   58  A    between atoms: _131  and  _132
REMARK   59  A    between atoms: _132  and  _133
REMARK   60  A    between atoms: _133  and  _134
REMARK   61  A    between atoms: _134  and  _135
REMARK   62  A    between atoms: _139  and  _141
REMARK   63  A    between atoms: _141  and  _142
REMARK   64  A    between atoms: _141  and  _144
REMARK   65  A    between atoms: _144  and  _145
REMARK   66  A    between atoms: _145  and  _146
REMARK   67  A    between atoms: _146  and  _147
REMARK   68  A    between atoms: _156  and  _158
REMARK   69  A    between atoms: _158  and  _159
REMARK   70  A    between atoms: _158  and  _161
REMARK   71  A    between atoms: _161  and  _162
REMARK   72  A    between atoms: _162  and  _163
REMARK   73  A    between atoms: _166  and  _168
REMARK   74  A    between atoms: _168  and  _169
REMARK   75  A    between atoms: _168  and  _171
REMARK   76  A    between atoms: _171  and  _172
REMARK   77  A    between atoms: _175  and  _177
REMARK   78  A    between atoms: _177  and  _178
REMARK   79  A    between atoms: _177  and  _180
REMARK   80  A    between atoms: _180  and  _181
REMARK   81  A    between atoms: _184  and  _186
REMARK   82  A    between atoms: _186  and  _187
REMARK   83  A    between atoms: _189  and  _191
REMARK   84  A    between atoms: _191  and  _192
REMARK   85  A    between atoms: _194  and  _196
REMARK   86  A    between atoms: _196  and  _197
REMARK   87  A    between atoms: _199  and  _201
REMARK   88  A    between atoms: _201  and  _202
REMARK   89  A    between atoms: _201  and  _204
REMARK   90  A    between atoms: _207  and  _209
REMARK   91  A    between atoms: _209  and  _210
REMARK   92  A    between atoms: _209  and  _212
REMARK   93  A    between atoms: _212  and  _213
REMARK   94  A    between atoms: _219  and  _221
REMARK   95  A    between atoms: _221  and  _222
REMARK   96  A    between atoms: _221  and  _224
REMARK   97  A    between atoms: _224  and  _225
REMARK   98  A    between atoms: _228  and  _230
REMARK   99  A    between atoms: _230  and  _231
REMARK  100  A    between atoms: _233  and  _235
REMARK  101  A    between atoms: _235  and  _236
REMARK  102  A    between atoms: _238  and  _240
REMARK  103  A    between atoms: _240  and  _241
REMARK  104  A    between atoms: _240  and  _243
REMARK  105  A    between atoms: _243  and  _244
REMARK  106  A    between atoms: _244  and  _245
REMARK  107  A    between atoms: _248  and  _250
REMARK  108  A    between atoms: _250  and  _251
REMARK  109  A    between atoms: _250  and  _253
REMARK  110  A    between atoms: _253  and  _254
REMARK  111  A    between atoms: _257  and  _259
REMARK  112  A    between atoms: _259  and  _260
REMARK  113  A    between atoms: _259  and  _262
REMARK  114  A    between atoms: _262  and  _263
REMARK  115  A    between atoms: _269  and  _271
REMARK  116  A    between atoms: _271  and  _272
REMARK  117  A    between atoms: _271  and  _274
REMARK  118  A    between atoms: _274  and  _275
REMARK  119  A    between atoms: _278  and  _280
REMARK  120  A    between atoms: _280  and  _281
REMARK  121  A    between atoms: _280  and  _283
REMARK  122  A    between atoms: _285  and  _287
REMARK  123  A    between atoms: _287  and  _288
REMARK  124  A    between atoms: _287  and  _290
REMARK  125  A    between atoms: _290  and  _291
REMARK  126  A    between atoms: _291  and  _292
REMARK  127  A    between atoms: _295  and  _297
REMARK  128  A    between atoms: _297  and  _298
REMARK  129  A    between atoms: _297  and  _300
REMARK  130  A    between atoms: _300  and  _301
REMARK  131  A    between atoms: _301  and  _302
REMARK  132  A    between atoms: _302  and  _303
REMARK  133  A    between atoms: _312  and  _314
REMARK  134  A    between atoms: _314  and  _315
REMARK  135  A    between atoms: _318  and  _320
REMARK  136  A    between atoms: _320  and  _321
REMARK  137  A    between atoms: _320  and  _323
REMARK  138  A    between atoms: _323  and  _324
REMARK  139  A    between atoms: _324  and  _325
REMARK  140  A    between atoms: _325  and  _326
REMARK  141  A    between atoms: _326  and  _327
REMARK  142  A    between atoms: _331  and  _333
REMARK  143  A    between atoms: _333  and  _334
REMARK  144  A    between atoms: _333  and  _336
REMARK  145  A    between atoms: _336  and  _337
REMARK  146  A    between atoms: _337  and  _338
REMARK  147  A    between atoms: _338  and  _339
REMARK  148  A    between atoms: _348  and  _350
REMARK  149  A    between atoms: _350  and  _351
REMARK  150  A    between atoms: _350  and  _353
REMARK  151  A    between atoms: _353  and  _354
REMARK  152  A    between atoms: _357  and  _359
REMARK  153  A    between atoms: _359  and  _360
REMARK  154  A    between atoms: _359  and  _362
REMARK  155  A    between atoms: _362  and  _363
REMARK  156  A    between atoms: _366  and  _368
REMARK  157  A    between atoms: _368  and  _369
REMARK  158  A    between atoms: _368  and  _371
REMARK  159  A    between atoms: _371  and  _372
REMARK  160  A    between atoms: _374  and  _376
REMARK  161  A    between atoms: _376  and  _377
REMARK  162  A    between atoms: _376  and  _379
REMARK  163  A    between atoms: _379  and  _380
REMARK  164  A    between atoms: _382  and  _384
REMARK  165  A    between atoms: _384  and  _385
REMARK  166  A    between atoms: _384  and  _387
REMARK  167  A    between atoms: _387  and  _388
REMARK  168  A    between atoms: _394  and  _396
REMARK  169  A    between atoms: _396  and  _397
REMARK  170  A    between atoms: _396  and  _399
REMARK  171  A    between atoms: _402  and  _404
REMARK  172  A    between atoms: _404  and  _405
REMARK  173  A    between atoms: _407  and  _409
REMARK  174  A    between atoms: _409  and  _410
REMARK  175  A    between atoms: _412  and  _414
REMARK  176  A    between atoms: _414  and  _415
REMARK  177  A    between atoms: _414  and  _417
REMARK  178  A    between atoms: _417  and  _418
REMARK  179  A    between atoms: _420  and  _422
REMARK  180  A    between atoms: _422  and  _423
REMARK  181  A    between atoms: _422  and  _425
REMARK  182  A    between atoms: _425  and  _426
REMARK  183  A    between atoms: _429  and  _431
REMARK  184  A    between atoms: _431  and  _432
REMARK  185  A    between atoms: _431  and  _434
REMARK  186  A    between atoms: _434  and  _435
REMARK  187  A    between atoms: _435  and  _436
REMARK  188  A    between atoms: _436  and  _437
REMARK  189  A    between atoms: _446  and  _448
REMARK  190  A    between atoms: _448  and  _449
REMARK  191  A    between atoms: _448  and  _451
REMARK  192  A    between atoms: _451  and  _452
REMARK  193  A    between atoms: _456  and  _457
REMARK  194  A    between atoms: _462  and  _464
REMARK  195  A    between atoms: _464  and  _465
REMARK  196  A    between atoms: _464  and  _467
REMARK  197  A    between atoms: _467  and  _468
REMARK  198  A    between atoms: _471  and  _473
REMARK  199  A    between atoms: _473  and  _474
REMARK  200  A    between atoms: _473  and  _476
REMARK  201  A    between atoms: _476  and  _477
REMARK  202  A    between atoms: _483  and  _484
REMARK  203  A    between atoms: _489  and  _491
REMARK  204  A    between atoms: _491  and  _492
REMARK  205  A    between atoms: _491  and  _494
REMARK  206  A    between atoms: _494  and  _495
REMARK  207  A    between atoms: _498  and  _500
REMARK  208  A    between atoms: _500  and  _501
REMARK  209  A    between atoms: _500  and  _503
REMARK  210  A    between atoms: _503  and  _504
REMARK  211  A    between atoms: _504  and  _505
REMARK  212  A    between atoms: _508  and  _510
REMARK  213  A    between atoms: _510  and  _511
REMARK  214  A    between atoms: _514  and  _516
REMARK  215  A    between atoms: _516  and  _517
REMARK  216  A    between atoms: _516  and  _519
REMARK                            x       y       z     vdW  Elec       q    Type
REMARK                         _______ _______ _______ _____ _____    ______ ____
ROOT
ATOM      1  O   HOH     1      16.515  37.291  19.947  0.00  0.00    +0.000 OA
ENDROOT
TORSDOF 0
REMARK  Name = ../refined-set-2016/1atr/1atr_pocket.pdb
REMARK  216 active torsions:
REMARK  status: ('A' for Active; 'I' for Inactive)
REMARK    1  A    between atoms: _1  and  _3
REMARK    2  A    between atoms: _3  and  _4
REMARK    3  A    between atoms: _3  and  _6
REMARK    4  A    between atoms: _6  and  _7
REMARK    5  A    between atoms: _10  and  _12
REMARK    6  A    between atoms: _12  and  _13
REMARK    7  A    between atoms: _12  and  _15
REMARK    8  A    between atoms: _15  and  _16
REMARK    9  A    between atoms: _19  and  _21
REMARK   10  A    between atoms: _21  and  _22
REMARK   11  A    between atoms: _24  and  _26
REMARK   12  A    between atoms: _26  and  _27
REMARK   13  A    between atoms: _26  and  _29
REMARK   14  A    between atoms: _29  and  _30
REMARK   15  A    between atoms: _33  and  _35
REMARK   16  A    between atoms: _35  and  _36
REMARK   17  A    between atoms: _35  and  _38
REMARK   18  A    between atoms: _38  and  _39
REMARK   19  A    between atoms: _42  and  _44
REMARK   20  A    between atoms: _44  and  _45
REMARK   21  A    between atoms: _44  and  _47
REMARK   22  A    between atoms: _47  and  _48
REMARK   23  A    between atoms: _53  and  _54
REMARK   24  A    between atoms: _56  and  _58
REMARK   25  A    between atoms: _58  and  _59
REMARK   26  A    between atoms: _58  and  _61
REMARK   27  A    between atoms: _61  and  _62
REMARK   28  A    between atoms: _64  and  _66
REMARK   29  A    between atoms: _66  and  _67
REMARK   30  A    between atoms: _66  and  _69
REMARK   31  A    between atoms: _71  and  _73
REMARK   32  A    between atoms: _73  and  _74
REMARK   33  A    between atoms: _73  and  _76
REMARK   34  A    between atoms: _76  and  _77
REMARK   35  A    between atoms: _80  and  _82
REMARK   36  A    between atoms: _82  and  _83
REMARK   37  A    between atoms: _82  and  _85
REMARK   38  A    between atoms: _85  and  _86
REMARK   39  A    between atoms: _90  and  _91
REMARK   40  A    between atoms: _96  and  _98
REMARK   41  A    between atoms: _98  and  _99
REMARK   42  A    between atoms: _98  and  _101
REMARK   43  A    between atoms: _101  and  _102
REMARK   44  A    between atoms: _104  and  _106
REMARK   45  A    between atoms: _106  and  _107
REMARK   46  A    between atoms: _106  and  _109
REMARK   47  A    between atoms: _109  and  _110
REMARK   48  A    between atoms: _110  and  _111
REMARK   49  A    between atoms: _111  and  _112
REMARK   50  A    between atoms: _112  and  _113
REMARK   51  A    between atoms: _117  and  _119
REMARK   52  A    between atoms: _119  and  _120
REMARK   53  A    between atoms: _119  and  _122
REMARK   54  A    between atoms: _122  and  _123
REMARK   55  A    between atoms: _126  and  _128
REMARK   56  A    between atoms: _128  and  _129
REMARK   57  A    between atoms: _128  and  _131
REMARK   58  A    between atoms: _131  and  _132
REMARK   59  A    between atoms: _132  and  _133
REMARK   60  A    between atoms: _133  and  _134
REMARK   61  A    between atoms: _134  and  _135
REMARK   62  A    between atoms: _139  and  _141
REMARK   63  A    between atoms: _141  and  _142
REMARK   64  A    between atoms: _141  and  _144
REMARK   65  A    between atoms: _144  and  _145
REMARK   66  A    between atoms: _145  and  _146
REMARK   67  A    between atoms: _146  and  _147
REMARK   68  A    between atoms: _156  and  _158
REMARK   69  A    between atoms: _158  and  _159
REMARK   70  A    between atoms: _158  and  _161
REMARK   71  A    between atoms: _161  and  _162
REMARK   72  A    between atoms: _162  and  _163
REMARK   73  A    between atoms: _166  and  _168
REMARK   74  A    between atoms: _168  and  _169
REMARK   75  A    between atoms: _168  and  _171
REMARK   76  A    between atoms: _171  and  _172
REMARK   77  A    between atoms: _175  and  _177
REMARK   78  A    between atoms: _177  and  _178
REMARK   79  A    between atoms: _177  and  _180
REMARK   80  A    between atoms: _180  and  _181
REMARK   81  A    between atoms: _184  and  _186
REMARK   82  A    between atoms: _186  and  _187
REMARK   83  A    between atoms: _189  and  _191
REMARK   84  A    between atoms: _191  and  _192
REMARK   85  A    between atoms: _194  and  _196
REMARK   86  A    between atoms: _196  and  _197
REMARK   87  A    between atoms: _199  and  _201
REMARK   88  A    between atoms: _201  and  _202
REMARK   89  A    between atoms: _201  and  _204
REMARK   90  A    between atoms: _207  and  _209
REMARK   91  A    between atoms: _209  and  _210
REMARK   92  A    between atoms: _209  and  _212
REMARK   93  A    between atoms: _212  and  _213
REMARK   94  A    between atoms: _219  and  _221
REMARK   95  A    between atoms: _221  and  _222
REMARK   96  A    between atoms: _221  and  _224
REMARK   97  A    between atoms: _224  and  _225
REMARK   98  A    between atoms: _228  and  _230
REMARK   99  A    between atoms: _230  and  _231
REMARK  100  A    between atoms: _233  and  _235
REMARK  101  A    between atoms: _235  and  _236
REMARK  102  A    between atoms: _238  and  _240
REMARK  103  A    between atoms: _240  and  _241
REMARK  104  A    between atoms: _240  and  _243
REMARK  105  A    between atoms: _243  and  _244
REMARK  106  A    between atoms: _244  and  _245
REMARK  107  A    between atoms: _248  and  _250
REMARK  108  A    between atoms: _250  and  _251
REMARK  109  A    between atoms: _250  and  _253
REMARK  110  A    between atoms: _253  and  _254
REMARK  111  A    between atoms: _257  and  _259
REMARK  112  A    between atoms: _259  and  _260
REMARK  113  A    between atoms: _259  and  _262
REMARK  114  A    between atoms: _262  and  _263
REMARK  115  A    between atoms: _269  and  _271
REMARK  116  A    between atoms: _271  and  _272
REMARK  117  A    between atoms: _271  and  _274
REMARK  118  A    between atoms: _274  and  _275
REMARK  119  A    between atoms: _278  and  _280
REMARK  120  A    between atoms: _280  and  _281
REMARK  121  A    between atoms: _280  and  _283
REMARK  122  A    between atoms: _285  and  _287
REMARK  123  A    between atoms: _287  and  _288
REMARK  124  A    between atoms: _287  and  _290
REMARK  125  A    between atoms: _290  and  _291
REMARK  126  A    between atoms: _291  and  _292
REMARK  127  A    between atoms: _295  and  _297
REMARK  128  A    between atoms: _297  and  _298
REMARK  129  A    between atoms: _297  and  _300
REMARK  130  A    between atoms: _300  and  _301
REMARK  131  A    between atoms: _301  and  _302
REMARK  132  A    between atoms: _302  and  _303
REMARK  133  A    between atoms: _312  and  _314
REMARK  134  A    between atoms: _314  and  _315
REMARK  135  A    between atoms: _318  and  _320
REMARK  136  A    between atoms: _320  and  _321
REMARK  137  A    between atoms: _320  and  _323
REMARK  138  A    between atoms: _323  and  _324
REMARK  139  A    between atoms: _324  and  _325
REMARK  140  A    between atoms: _325  and  _326
REMARK  141  A    between atoms: _326  and  _327
REMARK  142  A    between atoms: _331  and  _333
REMARK  143  A    between atoms: _333  and  _334
REMARK  144  A    between atoms: _333  and  _336
REMARK  145  A    between atoms: _336  and  _337
REMARK  146  A    between atoms: _337  and  _338
REMARK  147  A    between atoms: _338  and  _339
REMARK  148  A    between atoms: _348  and  _350
REMARK  149  A    between atoms: _350  and  _351
REMARK  150  A    between atoms: _350  and  _353
REMARK  151  A    between atoms: _353  and  _354
REMARK  152  A    between atoms: _357  and  _359
REMARK  153  A    between atoms: _359  and  _360
REMARK  154  A    between atoms: _359  and  _362
REMARK  155  A    between atoms: _362  and  _363
REMARK  156  A    between atoms: _366  and  _368
REMARK  157  A    between atoms: _368  and  _369
REMARK  158  A    between atoms: _368  and  _371
REMARK  159  A    between atoms: _371  and  _372
REMARK  160  A    between atoms: _374  and  _376
REMARK  161  A    between atoms: _376  and  _377
REMARK  162  A    between atoms: _376  and  _379
REMARK  163  A    between atoms: _379  and  _380
REMARK  164  A    between atoms: _382  and  _384
REMARK  165  A    between atoms: _384  and  _385
REMARK  166  A    between atoms: _384  and  _387
REMARK  167  A    between atoms: _387  and  _388
REMARK  168  A    between atoms: _394  and  _396
REMARK  169  A    between atoms: _396  and  _397
REMARK  170  A    between atoms: _396  and  _399
REMARK  171  A    between atoms: _402  and  _404
REMARK  172  A    between atoms: _404  and  _405
REMARK  173  A    between atoms: _407  and  _409
REMARK  174  A    between atoms: _409  and  _410
REMARK  175  A    between atoms: _412  and  _414
REMARK  176  A    between atoms: _414  and  _415
REMARK  177  A    between atoms: _414  and  _417
REMARK  178  A    between atoms: _417  and  _418
REMARK  179  A    between atoms: _420  and  _422
REMARK  180  A    between atoms: _422  and  _423
REMARK  181  A    between atoms: _422  and  _425
REMARK  182  A    between atoms: _425  and  _426
REMARK  183  A    between atoms: _429  and  _431
REMARK  184  A    between atoms: _431  and  _432
REMARK  185  A    between atoms: _431  and  _434
REMARK  186  A    between atoms: _434  and  _435
REMARK  187  A    between atoms: _435  and  _436
REMARK  188  A    between atoms: _436  and  _437
REMARK  189  A    between atoms: _446  and  _448
REMARK  190  A    between atoms: _448  and  _449
REMARK  191  A    between atoms: _448  and  _451
REMARK  192  A    between atoms: _451  and  _452
REMARK  193  A    between atoms: _456  and  _457
REMARK  194  A    between atoms: _462  and  _464
REMARK  195  A    between atoms: _464  and  _465
REMARK  196  A    between atoms: _464  and  _467
REMARK  197  A    between atoms: _467  and  _468
REMARK  198  A    between atoms: _471  and  _473
REMARK  199  A    between atoms: _473  and  _474
REMARK  200  A    between atoms: _473  and  _476
REMARK  201  A    between atoms: _476  and  _477
REMARK  202  A    between atoms: _483  and  _484
REMARK  203  A    between atoms: _489  and  _491
REMARK  204  A    between atoms: _491  and  _492
REMARK  205  A    between atoms: _491  and  _494
REMARK  206  A    between atoms: _494  and  _495
REMARK  207  A    between atoms: _498  and  _500
REMARK  208  A    between atoms: _500  and  _501
REMARK  209  A    between atoms: _500  and  _503
REMARK  210  A    between atoms: _503  and  _504
REMARK  211  A    between atoms: _504  and  _505
REMARK  212  A    between atoms: _508  and  _510
REMARK  213  A    between atoms: _510  and  _511
REMARK  214  A    between atoms: _514  and  _516
REMARK  215  A    between atoms: _516  and  _517
REMARK  216  A    between atoms: _516  and  _519
REMARK                            x       y       z     vdW  Elec       q    Type
REMARK                         _______ _______ _______ _____ _____    ______ ____
ROOT
ATOM      1  O   HOH     1      12.376  40.411  18.397  0.00  0.00    +0.000 OA
ENDROOT
TORSDOF 0
REMARK  Name = ../refined-set-2016/1atr/1atr_pocket.pdb
REMARK  216 active torsions:
REMARK  status: ('A' for Active; 'I' for Inactive)
REMARK    1  A    between atoms: _1  and  _3
REMARK    2  A    between atoms: _3  and  _4
REMARK    3  A    between atoms: _3  and  _6
REMARK    4  A    between atoms: _6  and  _7
REMARK    5  A    between atoms: _10  and  _12
REMARK    6  A    between atoms: _12  and  _13
REMARK    7  A    between atoms: _12  and  _15
REMARK    8  A    between atoms: _15  and  _16
REMARK    9  A    between atoms: _19  and  _21
REMARK   10  A    between atoms: _21  and  _22
REMARK   11  A    between atoms: _24  and  _26
REMARK   12  A    between atoms: _26  and  _27
REMARK   13  A    between atoms: _26  and  _29
REMARK   14  A    between atoms: _29  and  _30
REMARK   15  A    between atoms: _33  and  _35
REMARK   16  A    between atoms: _35  and  _36
REMARK   17  A    between atoms: _35  and  _38
REMARK   18  A    between atoms: _38  and  _39
REMARK   19  A    between atoms: _42  and  _44
REMARK   20  A    between atoms: _44  and  _45
REMARK   21  A    between atoms: _44  and  _47
REMARK   22  A    between atoms: _47  and  _48
REMARK   23  A    between atoms: _53  and  _54
REMARK   24  A    between atoms: _56  and  _58
REMARK   25  A    between atoms: _58  and  _59
REMARK   26  A    between atoms: _58  and  _61
REMARK   27  A    between atoms: _61  and  _62
REMARK   28  A    between atoms: _64  and  _66
REMARK   29  A    between atoms: _66  and  _67
REMARK   30  A    between atoms: _66  and  _69
REMARK   31  A    between atoms: _71  and  _73
REMARK   32  A    between atoms: _73  and  _74
REMARK   33  A    between atoms: _73  and  _76
REMARK   34  A    between atoms: _76  and  _77
REMARK   35  A    between atoms: _80  and  _82
REMARK   36  A    between atoms: _82  and  _83
REMARK   37  A    between atoms: _82  and  _85
REMARK   38  A    between atoms: _85  and  _86
REMARK   39  A    between atoms: _90  and  _91
REMARK   40  A    between atoms: _96  and  _98
REMARK   41  A    between atoms: _98  and  _99
REMARK   42  A    between atoms: _98  and  _101
REMARK   43  A    between atoms: _101  and  _102
REMARK   44  A    between atoms: _104  and  _106
REMARK   45  A    between atoms: _106  and  _107
REMARK   46  A    between atoms: _106  and  _109
REMARK   47  A    between atoms: _109  and  _110
REMARK   48  A    between atoms: _110  and  _111
REMARK   49  A    between atoms: _111  and  _112
REMARK   50  A    between atoms: _112  and  _113
REMARK   51  A    between atoms: _117  and  _119
REMARK   52  A    between atoms: _119  and  _120
REMARK   53  A    between atoms: _119  and  _122
REMARK   54  A    between atoms: _122  and  _123
REMARK   55  A    between atoms: _126  and  _128
REMARK   56  A    between atoms: _128  and  _129
REMARK   57  A    between atoms: _128  and  _131
REMARK   58  A    between atoms: _131  and  _132
REMARK   59  A    between atoms: _132  and  _133
REMARK   60  A    between atoms: _133  and  _134
REMARK   61  A    between atoms: _134  and  _135
REMARK   62  A    between atoms: _139  and  _141
REMARK   63  A    between atoms: _141  and  _142
REMARK   64  A    between atoms: _141  and  _144
REMARK   65  A    between atoms: _144  and  _145
REMARK   66  A    between atoms: _145  and  _146
REMARK   67  A    between atoms: _146  and  _147
REMARK   68  A    between atoms: _156  and  _158
REMARK   69  A    between atoms: _158  and  _159
REMARK   70  A    between atoms: _158  and  _161
REMARK   71  A    between atoms: _161  and  _162
REMARK   72  A    between atoms: _162  and  _163
REMARK   73  A    between atoms: _166  and  _168
REMARK   74  A    between atoms: _168  and  _169
REMARK   75  A    between atoms: _168  and  _171
REMARK   76  A    between atoms: _171  and  _172
REMARK   77  A    between atoms: _175  and  _177
REMARK   78  A    between atoms: _177  and  _178
REMARK   79  A    between atoms: _177  and  _180
REMARK   80  A    between atoms: _180  and  _181
REMARK   81  A    between atoms: _184  and  _186
REMARK   82  A    between atoms: _186  and  _187
REMARK   83  A    between atoms: _189  and  _191
REMARK   84  A    between atoms: _191  and  _192
REMARK   85  A    between atoms: _194  and  _196
REMARK   86  A    between atoms: _196  and  _197
REMARK   87  A    between atoms: _199  and  _201
REMARK   88  A    between atoms: _201  and  _202
REMARK   89  A    between atoms: _201  and  _204
REMARK   90  A    between atoms: _207  and  _209
REMARK   91  A    between atoms: _209  and  _210
REMARK   92  A    between atoms: _209  and  _212
REMARK   93  A    between atoms: _212  and  _213
REMARK   94  A    between atoms: _219  and  _221
REMARK   95  A    between atoms: _221  and  _222
REMARK   96  A    between atoms: _221  and  _224
REMARK   97  A    between atoms: _224  and  _225
REMARK   98  A    between atoms: _228  and  _230
REMARK   99  A    between atoms: _230  and  _231
REMARK  100  A    between atoms: _233  and  _235
REMARK  101  A    between atoms: _235  and  _236
REMARK  102  A    between atoms: _238  and  _240
REMARK  103  A    between atoms: _240  and  _241
REMARK  104  A    between atoms: _240  and  _243
REMARK  105  A    between atoms: _243  and  _244
REMARK  106  A    between atoms: _244  and  _245
REMARK  107  A    between atoms: _248  and  _250
REMARK  108  A    between atoms: _250  and  _251
REMARK  109  A    between atoms: _250  and  _253
REMARK  110  A    between atoms: _253  and  _254
REMARK  111  A    between atoms: _257  and  _259
REMARK  112  A    between atoms: _259  and  _260
REMARK  113  A    between atoms: _259  and  _262
REMARK  114  A    between atoms: _262  and  _263
REMARK  115  A    between atoms: _269  and  _271
REMARK  116  A    between atoms: _271  and  _272
REMARK  117  A    between atoms: _271  and  _274
REMARK  118  A    between atoms: _274  and  _275
REMARK  119  A    between atoms: _278  and  _280
REMARK  120  A    between atoms: _280  and  _281
REMARK  121  A    between atoms: _280  and  _283
REMARK  122  A    between atoms: _285  and  _287
REMARK  123  A    between atoms: _287  and  _288
REMARK  124  A    between atoms: _287  and  _290
REMARK  125  A    between atoms: _290  and  _291
REMARK  126  A    between atoms: _291  and  _292
REMARK  127  A    between atoms: _295  and  _297
REMARK  128  A    between atoms: _297  and  _298
REMARK  129  A    between atoms: _297  and  _300
REMARK  130  A    between atoms: _300  and  _301
REMARK  131  A    between atoms: _301  and  _302
REMARK  132  A    between atoms: _302  and  _303
REMARK  133  A    between atoms: _312  and  _314
REMARK  134  A    between atoms: _314  and  _315
REMARK  135  A    between atoms: _318  and  _320
REMARK  136  A    between atoms: _320  and  _321
REMARK  137  A    between atoms: _320  and  _323
REMARK  138  A    between atoms: _323  and  _324
REMARK  139  A    between atoms: _324  and  _325
REMARK  140  A    between atoms: _325  and  _326
REMARK  141  A    between atoms: _326  and  _327
REMARK  142  A    between atoms: _331  and  _333
REMARK  143  A    between atoms: _333  and  _334
REMARK  144  A    between atoms: _333  and  _336
REMARK  145  A    between atoms: _336  and  _337
REMARK  146  A    between atoms: _337  and  _338
REMARK  147  A    between atoms: _338  and  _339
REMARK  148  A    between atoms: _348  and  _350
REMARK  149  A    between atoms: _350  and  _351
REMARK  150  A    between atoms: _350  and  _353
REMARK  151  A    between atoms: _353  and  _354
REMARK  152  A    between atoms: _357  and  _359
REMARK  153  A    between atoms: _359  and  _360
REMARK  154  A    between atoms: _359  and  _362
REMARK  155  A    between atoms: _362  and  _363
REMARK  156  A    between atoms: _366  and  _368
REMARK  157  A    between atoms: _368  and  _369
REMARK  158  A    between atoms: _368  and  _371
REMARK  159  A    between atoms: _371  and  _372
REMARK  160  A    between atoms: _374  and  _376
REMARK  161  A    between atoms: _376  and  _377
REMARK  162  A    between atoms: _376  and  _379
REMARK  163  A    between atoms: _379  and  _380
REMARK  164  A    between atoms: _382  and  _384
REMARK  165  A    between atoms: _384  and  _385
REMARK  166  A    between atoms: _384  and  _387
REMARK  167  A    between atoms: _387  and  _388
REMARK  168  A    between atoms: _394  and  _396
REMARK  169  A    between atoms: _396  and  _397
REMARK  170  A    between atoms: _396  and  _399
REMARK  171  A    between atoms: _402  and  _404
REMARK  172  A    between atoms: _404  and  _405
REMARK  173  A    between atoms: _407  and  _409
REMARK  174  A    between atoms: _409  and  _410
REMARK  175  A    between atoms: _412  and  _414
REMARK  176  A    between atoms: _414  and  _415
REMARK  177  A    between atoms: _414  and  _417
REMARK  178  A    between atoms: _417  and  _418
REMARK  179  A    between atoms: _420  and  _422
REMARK  180  A    between atoms: _422  and  _423
REMARK  181  A    between atoms: _422  and  _425
REMARK  182  A    between atoms: _425  and  _426
REMARK  183  A    between atoms: _429  and  _431
REMARK  184  A    between atoms: _431  and  _432
REMARK  185  A    between atoms: _431  and  _434
REMARK  186  A    between atoms: _434  and  _435
REMARK  187  A    between atoms: _435  and  _436
REMARK  188  A    between atoms: _436  and  _437
REMARK  189  A    between atoms: _446  and  _448
REMARK  190  A    between atoms: _448  and  _449
REMARK  191  A    between atoms: _448  and  _451
REMARK  192  A    between atoms: _451  and  _452
REMARK  193  A    between atoms: _456  and  _457
REMARK  194  A    between atoms: _462  and  _464
REMARK  195  A    between atoms: _464  and  _465
REMARK  196  A    between atoms: _464  and  _467
REMARK  197  A    between atoms: _467  and  _468
REMARK  198  A    between atoms: _471  and  _473
REMARK  199  A    between atoms: _473  and  _474
REMARK  200  A    between atoms: _473  and  _476
REMARK  201  A    between atoms: _476  and  _477
REMARK  202  A    between atoms: _483  and  _484
REMARK  203  A    between atoms: _489  and  _491
REMARK  204  A    between atoms: _491  and  _492
REMARK  205  A    between atoms: _491  and  _494
REMARK  206  A    between atoms: _494  and  _495
REMARK  207  A    between atoms: _498  and  _500
REMARK  208  A    between atoms: _500  and  _501
REMARK  209  A    between atoms: _500  and  _503
REMARK  210  A    between atoms: _503  and  _504
REMARK  211  A    between atoms: _504  and  _505
REMARK  212  A    between atoms: _508  and  _510
REMARK  213  A    between atoms: _510  and  _511
REMARK  214  A    between atoms: _514  and  _516
REMARK  215  A    between atoms: _516  and  _517
REMARK  216  A    between atoms: _516  and  _519
REMARK                            x       y       z     vdW  Elec       q    Type
REMARK                         _______ _______ _______ _____ _____    ______ ____
ROOT
ATOM      1  O   HOH     1      18.427  40.095   7.848  0.00  0.00    +0.000 OA
ENDROOT
TORSDOF 0
REMARK  Name = ../refined-set-2016/1atr/1atr_pocket.pdb
REMARK  216 active torsions:
REMARK  status: ('A' for Active; 'I' for Inactive)
REMARK    1  A    between atoms: _1  and  _3
REMARK    2  A    between atoms: _3  and  _4
REMARK    3  A    between atoms: _3  and  _6
REMARK    4  A    between atoms: _6  and  _7
REMARK    5  A    between atoms: _10  and  _12
REMARK    6  A    between atoms: _12  and  _13
REMARK    7  A    between atoms: _12  and  _15
REMARK    8  A    between atoms: _15  and  _16
REMARK    9  A    between atoms: _19  and  _21
REMARK   10  A    between atoms: _21  and  _22
REMARK   11  A    between atoms: _24  and  _26
REMARK   12  A    between atoms: _26  and  _27
REMARK   13  A    between atoms: _26  and  _29
REMARK   14  A    between atoms: _29  and  _30
REMARK   15  A    between atoms: _33  and  _35
REMARK   16  A    between atoms: _35  and  _36
REMARK   17  A    between atoms: _35  and  _38
REMARK   18  A    between atoms: _38  and  _39
REMARK   19  A    between atoms: _42  and  _44
REMARK   20  A    between atoms: _44  and  _45
REMARK   21  A    between atoms: _44  and  _47
REMARK   22  A    between atoms: _47  and  _48
REMARK   23  A    between atoms: _53  and  _54
REMARK   24  A    between atoms: _56  and  _58
REMARK   25  A    between atoms: _58  and  _59
REMARK   26  A    between atoms: _58  and  _61
REMARK   27  A    between atoms: _61  and  _62
REMARK   28  A    between atoms: _64  and  _66
REMARK   29  A    between atoms: _66  and  _67
REMARK   30  A    between atoms: _66  and  _69
REMARK   31  A    between atoms: _71  and  _73
REMARK   32  A    between atoms: _73  and  _74
REMARK   33  A    between atoms: _73  and  _76
REMARK   34  A    between atoms: _76  and  _77
REMARK   35  A    between atoms: _80  and  _82
REMARK   36  A    between atoms: _82  and  _83
REMARK   37  A    between atoms: _82  and  _85
REMARK   38  A    between atoms: _85  and  _86
REMARK   39  A    between atoms: _90  and  _91
REMARK   40  A    between atoms: _96  and  _98
REMARK   41  A    between atoms: _98  and  _99
REMARK   42  A    between atoms: _98  and  _101
REMARK   43  A    between atoms: _101  and  _102
REMARK   44  A    between atoms: _104  and  _106
REMARK   45  A    between atoms: _106  and  _107
REMARK   46  A    between atoms: _106  and  _109
REMARK   47  A    between atoms: _109  and  _110
REMARK   48  A    between atoms: _110  and  _111
REMARK   49  A    between atoms: _111  and  _112
REMARK   50  A    between atoms: _112  and  _113
REMARK   51  A    between atoms: _117  and  _119
REMARK   52  A    between atoms: _119  and  _120
REMARK   53  A    between atoms: _119  and  _122
REMARK   54  A    between atoms: _122  and  _123
REMARK   55  A    between atoms: _126  and  _128
REMARK   56  A    between atoms: _128  and  _129
REMARK   57  A    between atoms: _128  and  _131
REMARK   58  A    between atoms: _131  and  _132
REMARK   59  A    between atoms: _132  and  _133
REMARK   60  A    between atoms: _133  and  _134
REMARK   61  A    between atoms: _134  and  _135
REMARK   62  A    between atoms: _139  and  _141
REMARK   63  A    between atoms: _141  and  _142
REMARK   64  A    between atoms: _141  and  _144
REMARK   65  A    between atoms: _144  and  _145
REMARK   66  A    between atoms: _145  and  _146
REMARK   67  A    between atoms: _146  and  _147
REMARK   68  A    between atoms: _156  and  _158
REMARK   69  A    between atoms: _158  and  _159
REMARK   70  A    between atoms: _158  and  _161
REMARK   71  A    between atoms: _161  and  _162
REMARK   72  A    between atoms: _162  and  _163
REMARK   73  A    between atoms: _166  and  _168
REMARK   74  A    between atoms: _168  and  _169
REMARK   75  A    between atoms: _168  and  _171
REMARK   76  A    between atoms: _171  and  _172
REMARK   77  A    between atoms: _175  and  _177
REMARK   78  A    between atoms: _177  and  _178
REMARK   79  A    between atoms: _177  and  _180
REMARK   80  A    between atoms: _180  and  _181
REMARK   81  A    between atoms: _184  and  _186
REMARK   82  A    between atoms: _186  and  _187
REMARK   83  A    between atoms: _189  and  _191
REMARK   84  A    between atoms: _191  and  _192
REMARK   85  A    between atoms: _194  and  _196
REMARK   86  A    between atoms: _196  and  _197
REMARK   87  A    between atoms: _199  and  _201
REMARK   88  A    between atoms: _201  and  _202
REMARK   89  A    between atoms: _201  and  _204
REMARK   90  A    between atoms: _207  and  _209
REMARK   91  A    between atoms: _209  and  _210
REMARK   92  A    between atoms: _209  and  _212
REMARK   93  A    between atoms: _212  and  _213
REMARK   94  A    between atoms: _219  and  _221
REMARK   95  A    between atoms: _221  and  _222
REMARK   96  A    between atoms: _221  and  _224
REMARK   97  A    between atoms: _224  and  _225
REMARK   98  A    between atoms: _228  and  _230
REMARK   99  A    between atoms: _230  and  _231
REMARK  100  A    between atoms: _233  and  _235
REMARK  101  A    between atoms: _235  and  _236
REMARK  102  A    between atoms: _238  and  _240
REMARK  103  A    between atoms: _240  and  _241
REMARK  104  A    between atoms: _240  and  _243
REMARK  105  A    between atoms: _243  and  _244
REMARK  106  A    between atoms: _244  and  _245
REMARK  107  A    between atoms: _248  and  _250
REMARK  108  A    between atoms: _250  and  _251
REMARK  109  A    between atoms: _250  and  _253
REMARK  110  A    between atoms: _253  and  _254
REMARK  111  A    between atoms: _257  and  _259
REMARK  112  A    between atoms: _259  and  _260
REMARK  113  A    between atoms: _259  and  _262
REMARK  114  A    between atoms: _262  and  _263
REMARK  115  A    between atoms: _269  and  _271
REMARK  116  A    between atoms: _271  and  _272
REMARK  117  A    between atoms: _271  and  _274
REMARK  118  A    between atoms: _274  and  _275
REMARK  119  A    between atoms: _278  and  _280
REMARK  120  A    between atoms: _280  and  _281
REMARK  121  A    between atoms: _280  and  _283
REMARK  122  A    between atoms: _285  and  _287
REMARK  123  A    between atoms: _287  and  _288
REMARK  124  A    between atoms: _287  and  _290
REMARK  125  A    between atoms: _290  and  _291
REMARK  126  A    between atoms: _291  and  _292
REMARK  127  A    between atoms: _295  and  _297
REMARK  128  A    between atoms: _297  and  _298
REMARK  129  A    between atoms: _297  and  _300
REMARK  130  A    between atoms: _300  and  _301
REMARK  131  A    between atoms: _301  and  _302
REMARK  132  A    between atoms: _302  and  _303
REMARK  133  A    between atoms: _312  and  _314
REMARK  134  A    between atoms: _314  and  _315
REMARK  135  A    between atoms: _318  and  _320
REMARK  136  A    between atoms: _320  and  _321
REMARK  137  A    between atoms: _320  and  _323
REMARK  138  A    between atoms: _323  and  _324
REMARK  139  A    between atoms: _324  and  _325
REMARK  140  A    between atoms: _325  and  _326
REMARK  141  A    between atoms: _326  and  _327
REMARK  142  A    between atoms: _331  and  _333
REMARK  143  A    between atoms: _333  and  _334
REMARK  144  A    between atoms: _333  and  _336
REMARK  145  A    between atoms: _336  and  _337
REMARK  146  A    between atoms: _337  and  _338
REMARK  147  A    between atoms: _338  and  _339
REMARK  148  A    between atoms: _348  and  _350
REMARK  149  A    between atoms: _350  and  _351
REMARK  150  A    between atoms: _350  and  _353
REMARK  151  A    between atoms: _353  and  _354
REMARK  152  A    between atoms: _357  and  _359
REMARK  153  A    between atoms: _359  and  _360
REMARK  154  A    between atoms: _359  and  _362
REMARK  155  A    between atoms: _362  and  _363
REMARK  156  A    between atoms: _366  and  _368
REMARK  157  A    between atoms: _368  and  _369
REMARK  158  A    between atoms: _368  and  _371
REMARK  159  A    between atoms: _371  and  _372
REMARK  160  A    between atoms: _374  and  _376
REMARK  161  A    between atoms: _376  and  _377
REMARK  162  A    between atoms: _376  and  _379
REMARK  163  A    between atoms: _379  and  _380
REMARK  164  A    between atoms: _382  and  _384
REMARK  165  A    between atoms: _384  and  _385
REMARK  166  A    between atoms: _384  and  _387
REMARK  167  A    between atoms: _387  and  _388
REMARK  168  A    between atoms: _394  and  _396
REMARK  169  A    between atoms: _396  and  _397
REMARK  170  A    between atoms: _396  and  _399
REMARK  171  A    between atoms: _402  and  _404
REMARK  172  A    between atoms: _404  and  _405
REMARK  173  A    between atoms: _407  and  _409
REMARK  174  A    between atoms: _409  and  _410
REMARK  175  A    between atoms: _412  and  _414
REMARK  176  A    between atoms: _414  and  _415
REMARK  177  A    between atoms: _414  and  _417
REMARK  178  A    between atoms: _417  and  _418
REMARK  179  A    between atoms: _420  and  _422
REMARK  180  A    between atoms: _422  and  _423
REMARK  181  A    between atoms: _422  and  _425
REMARK  182  A    between atoms: _425  and  _426
REMARK  183  A    between atoms: _429  and  _431
REMARK  184  A    between atoms: _431  and  _432
REMARK  185  A    between atoms: _431  and  _434
REMARK  186  A    between atoms: _434  and  _435
REMARK  187  A    between atoms: _435  and  _436
REMARK  188  A    between atoms: _436  and  _437
REMARK  189  A    between atoms: _446  and  _448
REMARK  190  A    between atoms: _448  and  _449
REMARK  191  A    between atoms: _448  and  _451
REMARK  192  A    between atoms: _451  and  _452
REMARK  193  A    between atoms: _456  and  _457
REMARK  194  A    between atoms: _462  and  _464
REMARK  195  A    between atoms: _464  and  _465
REMARK  196  A    between atoms: _464  and  _467
REMARK  197  A    between atoms: _467  and  _468
REMARK  198  A    between atoms: _471  and  _473
REMARK  199  A    between atoms: _473  and  _474
REMARK  200  A    between atoms: _473  and  _476
REMARK  201  A    between atoms: _476  and  _477
REMARK  202  A    between atoms: _483  and  _484
REMARK  203  A    between atoms: _489  and  _491
REMARK  204  A    between atoms: _491  and  _492
REMARK  205  A    between atoms: _491  and  _494
REMARK  206  A    between atoms: _494  and  _495
REMARK  207  A    between atoms: _498  and  _500
REMARK  208  A    between atoms: _500  and  _501
REMARK  209  A    between atoms: _500  and  _503
REMARK  210  A    between atoms: _503  and  _504
REMARK  211  A    between atoms: _504  and  _505
REMARK  212  A    between atoms: _508  and  _510
REMARK  213  A    between atoms: _510  and  _511
REMARK  214  A    between atoms: _514  and  _516
REMARK  215  A    between atoms: _516  and  _517
REMARK  216  A    between atoms: _516  and  _519
REMARK                            x       y       z     vdW  Elec       q    Type
REMARK                         _______ _______ _______ _____ _____    ______ ____
ROOT
ATOM      1  O   HOH     1      19.015  36.730   7.508  0.00  0.00    +0.000 OA
ENDROOT
TORSDOF 0
REMARK  Name = ../refined-set-2016/1atr/1atr_pocket.pdb
REMARK  216 active torsions:
REMARK  status: ('A' for Active; 'I' for Inactive)
REMARK    1  A    between atoms: _1  and  _3
REMARK    2  A    between atoms: _3  and  _4
REMARK    3  A    between atoms: _3  and  _6
REMARK    4  A    between atoms: _6  and  _7
REMARK    5  A    between atoms: _10  and  _12
REMARK    6  A    between atoms: _12  and  _13
REMARK    7  A    between atoms: _12  and  _15
REMARK    8  A    between atoms: _15  and  _16
REMARK    9  A    between atoms: _19  and  _21
REMARK   10  A    between atoms: _21  and  _22
REMARK   11  A    between atoms: _24  and  _26
REMARK   12  A    between atoms: _26  and  _27
REMARK   13  A    between atoms: _26  and  _29
REMARK   14  A    between atoms: _29  and  _30
REMARK   15  A    between atoms: _33  and  _35
REMARK   16  A    between atoms: _35  and  _36
REMARK   17  A    between atoms: _35  and  _38
REMARK   18  A    between atoms: _38  and  _39
REMARK   19  A    between atoms: _42  and  _44
REMARK   20  A    between atoms: _44  and  _45
REMARK   21  A    between atoms: _44  and  _47
REMARK   22  A    between atoms: _47  and  _48
REMARK   23  A    between atoms: _53  and  _54
REMARK   24  A    between atoms: _56  and  _58
REMARK   25  A    between atoms: _58  and  _59
REMARK   26  A    between atoms: _58  and  _61
REMARK   27  A    between atoms: _61  and  _62
REMARK   28  A    between atoms: _64  and  _66
REMARK   29  A    between atoms: _66  and  _67
REMARK   30  A    between atoms: _66  and  _69
REMARK   31  A    between atoms: _71  and  _73
REMARK   32  A    between atoms: _73  and  _74
REMARK   33  A    between atoms: _73  and  _76
REMARK   34  A    between atoms: _76  and  _77
REMARK   35  A    between atoms: _80  and  _82
REMARK   36  A    between atoms: _82  and  _83
REMARK   37  A    between atoms: _82  and  _85
REMARK   38  A    between atoms: _85  and  _86
REMARK   39  A    between atoms: _90  and  _91
REMARK   40  A    between atoms: _96  and  _98
REMARK   41  A    between atoms: _98  and  _99
REMARK   42  A    between atoms: _98  and  _101
REMARK   43  A    between atoms: _101  and  _102
REMARK   44  A    between atoms: _104  and  _106
REMARK   45  A    between atoms: _106  and  _107
REMARK   46  A    between atoms: _106  and  _109
REMARK   47  A    between atoms: _109  and  _110
REMARK   48  A    between atoms: _110  and  _111
REMARK   49  A    between atoms: _111  and  _112
REMARK   50  A    between atoms: _112  and  _113
REMARK   51  A    between atoms: _117  and  _119
REMARK   52  A    between atoms: _119  and  _120
REMARK   53  A    between atoms: _119  and  _122
REMARK   54  A    between atoms: _122  and  _123
REMARK   55  A    between atoms: _126  and  _128
REMARK   56  A    between atoms: _128  and  _129
REMARK   57  A    between atoms: _128  and  _131
REMARK   58  A    between atoms: _131  and  _132
REMARK   59  A    between atoms: _132  and  _133
REMARK   60  A    between atoms: _133  and  _134
REMARK   61  A    between atoms: _134  and  _135
REMARK   62  A    between atoms: _139  and  _141
REMARK   63  A    between atoms: _141  and  _142
REMARK   64  A    between atoms: _141  and  _144
REMARK   65  A    between atoms: _144  and  _145
REMARK   66  A    between atoms: _145  and  _146
REMARK   67  A    between atoms: _146  and  _147
REMARK   68  A    between atoms: _156  and  _158
REMARK   69  A    between atoms: _158  and  _159
REMARK   70  A    between atoms: _158  and  _161
REMARK   71  A    between atoms: _161  and  _162
REMARK   72  A    between atoms: _162  and  _163
REMARK   73  A    between atoms: _166  and  _168
REMARK   74  A    between atoms: _168  and  _169
REMARK   75  A    between atoms: _168  and  _171
REMARK   76  A    between atoms: _171  and  _172
REMARK   77  A    between atoms: _175  and  _177
REMARK   78  A    between atoms: _177  and  _178
REMARK   79  A    between atoms: _177  and  _180
REMARK   80  A    between atoms: _180  and  _181
REMARK   81  A    between atoms: _184  and  _186
REMARK   82  A    between atoms: _186  and  _187
REMARK   83  A    between atoms: _189  and  _191
REMARK   84  A    between atoms: _191  and  _192
REMARK   85  A    between atoms: _194  and  _196
REMARK   86  A    between atoms: _196  and  _197
REMARK   87  A    between atoms: _199  and  _201
REMARK   88  A    between atoms: _201  and  _202
REMARK   89  A    between atoms: _201  and  _204
REMARK   90  A    between atoms: _207  and  _209
REMARK   91  A    between atoms: _209  and  _210
REMARK   92  A    between atoms: _209  and  _212
REMARK   93  A    between atoms: _212  and  _213
REMARK   94  A    between atoms: _219  and  _221
REMARK   95  A    between atoms: _221  and  _222
REMARK   96  A    between atoms: _221  and  _224
REMARK   97  A    between atoms: _224  and  _225
REMARK   98  A    between atoms: _228  and  _230
REMARK   99  A    between atoms: _230  and  _231
REMARK  100  A    between atoms: _233  and  _235
REMARK  101  A    between atoms: _235  and  _236
REMARK  102  A    between atoms: _238  and  _240
REMARK  103  A    between atoms: _240  and  _241
REMARK  104  A    between atoms: _240  and  _243
REMARK  105  A    between atoms: _243  and  _244
REMARK  106  A    between atoms: _244  and  _245
REMARK  107  A    between atoms: _248  and  _250
REMARK  108  A    between atoms: _250  and  _251
REMARK  109  A    between atoms: _250  and  _253
REMARK  110  A    between atoms: _253  and  _254
REMARK  111  A    between atoms: _257  and  _259
REMARK  112  A    between atoms: _259  and  _260
REMARK  113  A    between atoms: _259  and  _262
REMARK  114  A    between atoms: _262  and  _263
REMARK  115  A    between atoms: _269  and  _271
REMARK  116  A    between atoms: _271  and  _272
REMARK  117  A    between atoms: _271  and  _274
REMARK  118  A    between atoms: _274  and  _275
REMARK  119  A    between atoms: _278  and  _280
REMARK  120  A    between atoms: _280  and  _281
REMARK  121  A    between atoms: _280  and  _283
REMARK  122  A    between atoms: _285  and  _287
REMARK  123  A    between atoms: _287  and  _288
REMARK  124  A    between atoms: _287  and  _290
REMARK  125  A    between atoms: _290  and  _291
REMARK  126  A    between atoms: _291  and  _292
REMARK  127  A    between atoms: _295  and  _297
REMARK  128  A    between atoms: _297  and  _298
REMARK  129  A    between atoms: _297  and  _300
REMARK  130  A    between atoms: _300  and  _301
REMARK  131  A    between atoms: _301  and  _302
REMARK  132  A    between atoms: _302  and  _303
REMARK  133  A    between atoms: _312  and  _314
REMARK  134  A    between atoms: _314  and  _315
REMARK  135  A    between atoms: _318  and  _320
REMARK  136  A    between atoms: _320  and  _321
REMARK  137  A    between atoms: _320  and  _323
REMARK  138  A    between atoms: _323  and  _324
REMARK  139  A    between atoms: _324  and  _325
REMARK  140  A    between atoms: _325  and  _326
REMARK  141  A    between atoms: _326  and  _327
REMARK  142  A    between atoms: _331  and  _333
REMARK  143  A    between atoms: _333  and  _334
REMARK  144  A    between atoms: _333  and  _336
REMARK  145  A    between atoms: _336  and  _337
REMARK  146  A    between atoms: _337  and  _338
REMARK  147  A    between atoms: _338  and  _339
REMARK  148  A    between atoms: _348  and  _350
REMARK  149  A    between atoms: _350  and  _351
REMARK  150  A    between atoms: _350  and  _353
REMARK  151  A    between atoms: _353  and  _354
REMARK  152  A    between atoms: _357  and  _359
REMARK  153  A    between atoms: _359  and  _360
REMARK  154  A    between atoms: _359  and  _362
REMARK  155  A    between atoms: _362  and  _363
REMARK  156  A    between atoms: _366  and  _368
REMARK  157  A    between atoms: _368  and  _369
REMARK  158  A    between atoms: _368  and  _371
REMARK  159  A    between atoms: _371  and  _372
REMARK  160  A    between atoms: _374  and  _376
REMARK  161  A    between atoms: _376  and  _377
REMARK  162  A    between atoms: _376  and  _379
REMARK  163  A    between atoms: _379  and  _380
REMARK  164  A    between atoms: _382  and  _384
REMARK  165  A    between atoms: _384  and  _385
REMARK  166  A    between atoms: _384  and  _387
REMARK  167  A    between atoms: _387  and  _388
REMARK  168  A    between atoms: _394  and  _396
REMARK  169  A    between atoms: _396  and  _397
REMARK  170  A    between atoms: _396  and  _399
REMARK  171  A    between atoms: _402  and  _404
REMARK  172  A    between atoms: _404  and  _405
REMARK  173  A    between atoms: _407  and  _409
REMARK  174  A    between atoms: _409  and  _410
REMARK  175  A    between atoms: _412  and  _414
REMARK  176  A    between atoms: _414  and  _415
REMARK  177  A    between atoms: _414  and  _417
REMARK  178  A    between atoms: _417  and  _418
REMARK  179  A    between atoms: _420  and  _422
REMARK  180  A    between atoms: _422  and  _423
REMARK  181  A    between atoms: _422  and  _425
REMARK  182  A    between atoms: _425  and  _426
REMARK  183  A    between atoms: _429  and  _431
REMARK  184  A    between atoms: _431  and  _432
REMARK  185  A    between atoms: _431  and  _434
REMARK  186  A    between atoms: _434  and  _435
REMARK  187  A    between atoms: _435  and  _436
REMARK  188  A    between atoms: _436  and  _437
REMARK  189  A    between atoms: _446  and  _448
REMARK  190  A    between atoms: _448  and  _449
REMARK  191  A    between atoms: _448  and  _451
REMARK  192  A    between atoms: _451  and  _452
REMARK  193  A    between atoms: _456  and  _457
REMARK  194  A    between atoms: _462  and  _464
REMARK  195  A    between atoms: _464  and  _465
REMARK  196  A    between atoms: _464  and  _467
REMARK  197  A    between atoms: _467  and  _468
REMARK  198  A    between atoms: _471  and  _473
REMARK  199  A    between atoms: _473  and  _474
REMARK  200  A    between atoms: _473  and  _476
REMARK  201  A    between atoms: _476  and  _477
REMARK  202  A    between atoms: _483  and  _484
REMARK  203  A    between atoms: _489  and  _491
REMARK  204  A    between atoms: _491  and  _492
REMARK  205  A    between atoms: _491  and  _494
REMARK  206  A    between atoms: _494  and  _495
REMARK  207  A    between atoms: _498  and  _500
REMARK  208  A    between atoms: _500  and  _501
REMARK  209  A    between atoms: _500  and  _503
REMARK  210  A    between atoms: _503  and  _504
REMARK  211  A    between atoms: _504  and  _505
REMARK  212  A    between atoms: _508  and  _510
REMARK  213  A    between atoms: _510  and  _511
REMARK  214  A    between atoms: _514  and  _516
REMARK  215  A    between atoms: _516  and  _517
REMARK  216  A    between atoms: _516  and  _519
REMARK                            x       y       z     vdW  Elec       q    Type
REMARK                         _______ _______ _______ _____ _____    ______ ____
ROOT
ATOM      1  O   HOH     1      22.588  35.424   8.565  0.00  0.00    +0.000 OA
ENDROOT
TORSDOF 0
REMARK  Name = ../refined-set-2016/1atr/1atr_pocket.pdb
REMARK  216 active torsions:
REMARK  status: ('A' for Active; 'I' for Inactive)
REMARK    1  A    between atoms: _1  and  _3
REMARK    2  A    between atoms: _3  and  _4
REMARK    3  A    between atoms: _3  and  _6
REMARK    4  A    between atoms: _6  and  _7
REMARK    5  A    between atoms: _10  and  _12
REMARK    6  A    between atoms: _12  and  _13
REMARK    7  A    between atoms: _12  and  _15
REMARK    8  A    between atoms: _15  and  _16
REMARK    9  A    between atoms: _19  and  _21
REMARK   10  A    between atoms: _21  and  _22
REMARK   11  A    between atoms: _24  and  _26
REMARK   12  A    between atoms: _26  and  _27
REMARK   13  A    between atoms: _26  and  _29
REMARK   14  A    between atoms: _29  and  _30
REMARK   15  A    between atoms: _33  and  _35
REMARK   16  A    between atoms: _35  and  _36
REMARK   17  A    between atoms: _35  and  _38
REMARK   18  A    between atoms: _38  and  _39
REMARK   19  A    between atoms: _42  and  _44
REMARK   20  A    between atoms: _44  and  _45
REMARK   21  A    between atoms: _44  and  _47
REMARK   22  A    between atoms: _47  and  _48
REMARK   23  A    between atoms: _53  and  _54
REMARK   24  A    between atoms: _56  and  _58
REMARK   25  A    between atoms: _58  and  _59
REMARK   26  A    between atoms: _58  and  _61
REMARK   27  A    between atoms: _61  and  _62
REMARK   28  A    between atoms: _64  and  _66
REMARK   29  A    between atoms: _66  and  _67
REMARK   30  A    between atoms: _66  and  _69
REMARK   31  A    between atoms: _71  and  _73
REMARK   32  A    between atoms: _73  and  _74
REMARK   33  A    between atoms: _73  and  _76
REMARK   34  A    between atoms: _76  and  _77
REMARK   35  A    between atoms: _80  and  _82
REMARK   36  A    between atoms: _82  and  _83
REMARK   37  A    between atoms: _82  and  _85
REMARK   38  A    between atoms: _85  and  _86
REMARK   39  A    between atoms: _90  and  _91
REMARK   40  A    between atoms: _96  and  _98
REMARK   41  A    between atoms: _98  and  _99
REMARK   42  A    between atoms: _98  and  _101
REMARK   43  A    between atoms: _101  and  _102
REMARK   44  A    between atoms: _104  and  _106
REMARK   45  A    between atoms: _106  and  _107
REMARK   46  A    between atoms: _106  and  _109
REMARK   47  A    between atoms: _109  and  _110
REMARK   48  A    between atoms: _110  and  _111
REMARK   49  A    between atoms: _111  and  _112
REMARK   50  A    between atoms: _112  and  _113
REMARK   51  A    between atoms: _117  and  _119
REMARK   52  A    between atoms: _119  and  _120
REMARK   53  A    between atoms: _119  and  _122
REMARK   54  A    between atoms: _122  and  _123
REMARK   55  A    between atoms: _126  and  _128
REMARK   56  A    between atoms: _128  and  _129
REMARK   57  A    between atoms: _128  and  _131
REMARK   58  A    between atoms: _131  and  _132
REMARK   59  A    between atoms: _132  and  _133
REMARK   60  A    between atoms: _133  and  _134
REMARK   61  A    between atoms: _134  and  _135
REMARK   62  A    between atoms: _139  and  _141
REMARK   63  A    between atoms: _141  and  _142
REMARK   64  A    between atoms: _141  and  _144
REMARK   65  A    between atoms: _144  and  _145
REMARK   66  A    between atoms: _145  and  _146
REMARK   67  A    between atoms: _146  and  _147
REMARK   68  A    between atoms: _156  and  _158
REMARK   69  A    between atoms: _158  and  _159
REMARK   70  A    between atoms: _158  and  _161
REMARK   71  A    between atoms: _161  and  _162
REMARK   72  A    between atoms: _162  and  _163
REMARK   73  A    between atoms: _166  and  _168
REMARK   74  A    between atoms: _168  and  _169
REMARK   75  A    between atoms: _168  and  _171
REMARK   76  A    between atoms: _171  and  _172
REMARK   77  A    between atoms: _175  and  _177
REMARK   78  A    between atoms: _177  and  _178
REMARK   79  A    between atoms: _177  and  _180
REMARK   80  A    between atoms: _180  and  _181
REMARK   81  A    between atoms: _184  and  _186
REMARK   82  A    between atoms: _186  and  _187
REMARK   83  A    between atoms: _189  and  _191
REMARK   84  A    between atoms: _191  and  _192
REMARK   85  A    between atoms: _194  and  _196
REMARK   86  A    between atoms: _196  and  _197
REMARK   87  A    between atoms: _199  and  _201
REMARK   88  A    between atoms: _201  and  _202
REMARK   89  A    between atoms: _201  and  _204
REMARK   90  A    between atoms: _207  and  _209
REMARK   91  A    between atoms: _209  and  _210
REMARK   92  A    between atoms: _209  and  _212
REMARK   93  A    between atoms: _212  and  _213
REMARK   94  A    between atoms: _219  and  _221
REMARK   95  A    between atoms: _221  and  _222
REMARK   96  A    between atoms: _221  and  _224
REMARK   97  A    between atoms: _224  and  _225
REMARK   98  A    between atoms: _228  and  _230
REMARK   99  A    between atoms: _230  and  _231
REMARK  100  A    between atoms: _233  and  _235
REMARK  101  A    between atoms: _235  and  _236
REMARK  102  A    between atoms: _238  and  _240
REMARK  103  A    between atoms: _240  and  _241
REMARK  104  A    between atoms: _240  and  _243
REMARK  105  A    between atoms: _243  and  _244
REMARK  106  A    between atoms: _244  and  _245
REMARK  107  A    between atoms: _248  and  _250
REMARK  108  A    between atoms: _250  and  _251
REMARK  109  A    between atoms: _250  and  _253
REMARK  110  A    between atoms: _253  and  _254
REMARK  111  A    between atoms: _257  and  _259
REMARK  112  A    between atoms: _259  and  _260
REMARK  113  A    between atoms: _259  and  _262
REMARK  114  A    between atoms: _262  and  _263
REMARK  115  A    between atoms: _269  and  _271
REMARK  116  A    between atoms: _271  and  _272
REMARK  117  A    between atoms: _271  and  _274
REMARK  118  A    between atoms: _274  and  _275
REMARK  119  A    between atoms: _278  and  _280
REMARK  120  A    between atoms: _280  and  _281
REMARK  121  A    between atoms: _280  and  _283
REMARK  122  A    between atoms: _285  and  _287
REMARK  123  A    between atoms: _287  and  _288
REMARK  124  A    between atoms: _287  and  _290
REMARK  125  A    between atoms: _290  and  _291
REMARK  126  A    between atoms: _291  and  _292
REMARK  127  A    between atoms: _295  and  _297
REMARK  128  A    between atoms: _297  and  _298
REMARK  129  A    between atoms: _297  and  _300
REMARK  130  A    between atoms: _300  and  _301
REMARK  131  A    between atoms: _301  and  _302
REMARK  132  A    between atoms: _302  and  _303
REMARK  133  A    between atoms: _312  and  _314
REMARK  134  A    between atoms: _314  and  _315
REMARK  135  A    between atoms: _318  and  _320
REMARK  136  A    between atoms: _320  and  _321
REMARK  137  A    between atoms: _320  and  _323
REMARK  138  A    between atoms: _323  and  _324
REMARK  139  A    between atoms: _324  and  _325
REMARK  140  A    between atoms: _325  and  _326
REMARK  141  A    between atoms: _326  and  _327
REMARK  142  A    between atoms: _331  and  _333
REMARK  143  A    between atoms: _333  and  _334
REMARK  144  A    between atoms: _333  and  _336
REMARK  145  A    between atoms: _336  and  _337
REMARK  146  A    between atoms: _337  and  _338
REMARK  147  A    between atoms: _338  and  _339
REMARK  148  A    between atoms: _348  and  _350
REMARK  149  A    between atoms: _350  and  _351
REMARK  150  A    between atoms: _350  and  _353
REMARK  151  A    between atoms: _353  and  _354
REMARK  152  A    between atoms: _357  and  _359
REMARK  153  A    between atoms: _359  and  _360
REMARK  154  A    between atoms: _359  and  _362
REMARK  155  A    between atoms: _362  and  _363
REMARK  156  A    between atoms: _366  and  _368
REMARK  157  A    between atoms: _368  and  _369
REMARK  158  A    between atoms: _368  and  _371
REMARK  159  A    between atoms: _371  and  _372
REMARK  160  A    between atoms: _374  and  _376
REMARK  161  A    between atoms: _376  and  _377
REMARK  162  A    between atoms: _376  and  _379
REMARK  163  A    between atoms: _379  and  _380
REMARK  164  A    between atoms: _382  and  _384
REMARK  165  A    between atoms: _384  and  _385
REMARK  166  A    between atoms: _384  and  _387
REMARK  167  A    between atoms: _387  and  _388
REMARK  168  A    between atoms: _394  and  _396
REMARK  169  A    between atoms: _396  and  _397
REMARK  170  A    between atoms: _396  and  _399
REMARK  171  A    between atoms: _402  and  _404
REMARK  172  A    between atoms: _404  and  _405
REMARK  173  A    between atoms: _407  and  _409
REMARK  174  A    between atoms: _409  and  _410
REMARK  175  A    between atoms: _412  and  _414
REMARK  176  A    between atoms: _414  and  _415
REMARK  177  A    between atoms: _414  and  _417
REMARK  178  A    between atoms: _417  and  _418
REMARK  179  A    between atoms: _420  and  _422
REMARK  180  A    between atoms: _422  and  _423
REMARK  181  A    between atoms: _422  and  _425
REMARK  182  A    between atoms: _425  and  _426
REMARK  183  A    between atoms: _429  and  _431
REMARK  184  A    between atoms: _431  and  _432
REMARK  185  A    between atoms: _431  and  _434
REMARK  186  A    between atoms: _434  and  _435
REMARK  187  A    between atoms: _435  and  _436
REMARK  188  A    between atoms: _436  and  _437
REMARK  189  A    between atoms: _446  and  _448
REMARK  190  A    between atoms: _448  and  _449
REMARK  191  A    between atoms: _448  and  _451
REMARK  192  A    between atoms: _451  and  _452
REMARK  193  A    between atoms: _456  and  _457
REMARK  194  A    between atoms: _462  and  _464
REMARK  195  A    between atoms: _464  and  _465
REMARK  196  A    between atoms: _464  and  _467
REMARK  197  A    between atoms: _467  and  _468
REMARK  198  A    between atoms: _471  and  _473
REMARK  199  A    between atoms: _473  and  _474
REMARK  200  A    between atoms: _473  and  _476
REMARK  201  A    between atoms: _476  and  _477
REMARK  202  A    between atoms: _483  and  _484
REMARK  203  A    between atoms: _489  and  _491
REMARK  204  A    between atoms: _491  and  _492
REMARK  205  A    between atoms: _491  and  _494
REMARK  206  A    between atoms: _494  and  _495
REMARK  207  A    between atoms: _498  and  _500
REMARK  208  A    between atoms: _500  and  _501
REMARK  209  A    between atoms: _500  and  _503
REMARK  210  A    between atoms: _503  and  _504
REMARK  211  A    between atoms: _504  and  _505
REMARK  212  A    between atoms: _508  and  _510
REMARK  213  A    between atoms: _510  and  _511
REMARK  214  A    between atoms: _514  and  _516
REMARK  215  A    between atoms: _516  and  _517
REMARK  216  A    between atoms: _516  and  _519
REMARK                            x       y       z     vdW  Elec       q    Type
REMARK                         _______ _______ _______ _____ _____    ______ ____
ROOT
ATOM      1  O   HOH     1      20.238  46.230  13.226  0.00  0.00    +0.000 OA
ENDROOT
TORSDOF 0
REMARK  Name = ../refined-set-2016/1atr/1atr_pocket.pdb
REMARK  216 active torsions:
REMARK  status: ('A' for Active; 'I' for Inactive)
REMARK    1  A    between atoms: _1  and  _3
REMARK    2  A    between atoms: _3  and  _4
REMARK    3  A    between atoms: _3  and  _6
REMARK    4  A    between atoms: _6  and  _7
REMARK    5  A    between atoms: _10  and  _12
REMARK    6  A    between atoms: _12  and  _13
REMARK    7  A    between atoms: _12  and  _15
REMARK    8  A    between atoms: _15  and  _16
REMARK    9  A    between atoms: _19  and  _21
REMARK   10  A    between atoms: _21  and  _22
REMARK   11  A    between atoms: _24  and  _26
REMARK   12  A    between atoms: _26  and  _27
REMARK   13  A    between atoms: _26  and  _29
REMARK   14  A    between atoms: _29  and  _30
REMARK   15  A    between atoms: _33  and  _35
REMARK   16  A    between atoms: _35  and  _36
REMARK   17  A    between atoms: _35  and  _38
REMARK   18  A    between atoms: _38  and  _39
REMARK   19  A    between atoms: _42  and  _44
REMARK   20  A    between atoms: _44  and  _45
REMARK   21  A    between atoms: _44  and  _47
REMARK   22  A    between atoms: _47  and  _48
REMARK   23  A    between atoms: _53  and  _54
REMARK   24  A    between atoms: _56  and  _58
REMARK   25  A    between atoms: _58  and  _59
REMARK   26  A    between atoms: _58  and  _61
REMARK   27  A    between atoms: _61  and  _62
REMARK   28  A    between atoms: _64  and  _66
REMARK   29  A    between atoms: _66  and  _67
REMARK   30  A    between atoms: _66  and  _69
REMARK   31  A    between atoms: _71  and  _73
REMARK   32  A    between atoms: _73  and  _74
REMARK   33  A    between atoms: _73  and  _76
REMARK   34  A    between atoms: _76  and  _77
REMARK   35  A    between atoms: _80  and  _82
REMARK   36  A    between atoms: _82  and  _83
REMARK   37  A    between atoms: _82  and  _85
REMARK   38  A    between atoms: _85  and  _86
REMARK   39  A    between atoms: _90  and  _91
REMARK   40  A    between atoms: _96  and  _98
REMARK   41  A    between atoms: _98  and  _99
REMARK   42  A    between atoms: _98  and  _101
REMARK   43  A    between atoms: _101  and  _102
REMARK   44  A    between atoms: _104  and  _106
REMARK   45  A    between atoms: _106  and  _107
REMARK   46  A    between atoms: _106  and  _109
REMARK   47  A    between atoms: _109  and  _110
REMARK   48  A    between atoms: _110  and  _111
REMARK   49  A    between atoms: _111  and  _112
REMARK   50  A    between atoms: _112  and  _113
REMARK   51  A    between atoms: _117  and  _119
REMARK   52  A    between atoms: _119  and  _120
REMARK   53  A    between atoms: _119  and  _122
REMARK   54  A    between atoms: _122  and  _123
REMARK   55  A    between atoms: _126  and  _128
REMARK   56  A    between atoms: _128  and  _129
REMARK   57  A    between atoms: _128  and  _131
REMARK   58  A    between atoms: _131  and  _132
REMARK   59  A    between atoms: _132  and  _133
REMARK   60  A    between atoms: _133  and  _134
REMARK   61  A    between atoms: _134  and  _135
REMARK   62  A    between atoms: _139  and  _141
REMARK   63  A    between atoms: _141  and  _142
REMARK   64  A    between atoms: _141  and  _144
REMARK   65  A    between atoms: _144  and  _145
REMARK   66  A    between atoms: _145  and  _146
REMARK   67  A    between atoms: _146  and  _147
REMARK   68  A    between atoms: _156  and  _158
REMARK   69  A    between atoms: _158  and  _159
REMARK   70  A    between atoms: _158  and  _161
REMARK   71  A    between atoms: _161  and  _162
REMARK   72  A    between atoms: _162  and  _163
REMARK   73  A    between atoms: _166  and  _168
REMARK   74  A    between atoms: _168  and  _169
REMARK   75  A    between atoms: _168  and  _171
REMARK   76  A    between atoms: _171  and  _172
REMARK   77  A    between atoms: _175  and  _177
REMARK   78  A    between atoms: _177  and  _178
REMARK   79  A    between atoms: _177  and  _180
REMARK   80  A    between atoms: _180  and  _181
REMARK   81  A    between atoms: _184  and  _186
REMARK   82  A    between atoms: _186  and  _187
REMARK   83  A    between atoms: _189  and  _191
REMARK   84  A    between atoms: _191  and  _192
REMARK   85  A    between atoms: _194  and  _196
REMARK   86  A    between atoms: _196  and  _197
REMARK   87  A    between atoms: _199  and  _201
REMARK   88  A    between atoms: _201  and  _202
REMARK   89  A    between atoms: _201  and  _204
REMARK   90  A    between atoms: _207  and  _209
REMARK   91  A    between atoms: _209  and  _210
REMARK   92  A    between atoms: _209  and  _212
REMARK   93  A    between atoms: _212  and  _213
REMARK   94  A    between atoms: _219  and  _221
REMARK   95  A    between atoms: _221  and  _222
REMARK   96  A    between atoms: _221  and  _224
REMARK   97  A    between atoms: _224  and  _225
REMARK   98  A    between atoms: _228  and  _230
REMARK   99  A    between atoms: _230  and  _231
REMARK  100  A    between atoms: _233  and  _235
REMARK  101  A    between atoms: _235  and  _236
REMARK  102  A    between atoms: _238  and  _240
REMARK  103  A    between atoms: _240  and  _241
REMARK  104  A    between atoms: _240  and  _243
REMARK  105  A    between atoms: _243  and  _244
REMARK  106  A    between atoms: _244  and  _245
REMARK  107  A    between atoms: _248  and  _250
REMARK  108  A    between atoms: _250  and  _251
REMARK  109  A    between atoms: _250  and  _253
REMARK  110  A    between atoms: _253  and  _254
REMARK  111  A    between atoms: _257  and  _259
REMARK  112  A    between atoms: _259  and  _260
REMARK  113  A    between atoms: _259  and  _262
REMARK  114  A    between atoms: _262  and  _263
REMARK  115  A    between atoms: _269  and  _271
REMARK  116  A    between atoms: _271  and  _272
REMARK  117  A    between atoms: _271  and  _274
REMARK  118  A    between atoms: _274  and  _275
REMARK  119  A    between atoms: _278  and  _280
REMARK  120  A    between atoms: _280  and  _281
REMARK  121  A    between atoms: _280  and  _283
REMARK  122  A    between atoms: _285  and  _287
REMARK  123  A    between atoms: _287  and  _288
REMARK  124  A    between atoms: _287  and  _290
REMARK  125  A    between atoms: _290  and  _291
REMARK  126  A    between atoms: _291  and  _292
REMARK  127  A    between atoms: _295  and  _297
REMARK  128  A    between atoms: _297  and  _298
REMARK  129  A    between atoms: _297  and  _300
REMARK  130  A    between atoms: _300  and  _301
REMARK  131  A    between atoms: _301  and  _302
REMARK  132  A    between atoms: _302  and  _303
REMARK  133  A    between atoms: _312  and  _314
REMARK  134  A    between atoms: _314  and  _315
REMARK  135  A    between atoms: _318  and  _320
REMARK  136  A    between atoms: _320  and  _321
REMARK  137  A    between atoms: _320  and  _323
REMARK  138  A    between atoms: _323  and  _324
REMARK  139  A    between atoms: _324  and  _325
REMARK  140  A    between atoms: _325  and  _326
REMARK  141  A    between atoms: _326  and  _327
REMARK  142  A    between atoms: _331  and  _333
REMARK  143  A    between atoms: _333  and  _334
REMARK  144  A    between atoms: _333  and  _336
REMARK  145  A    between atoms: _336  and  _337
REMARK  146  A    between atoms: _337  and  _338
REMARK  147  A    between atoms: _338  and  _339
REMARK  148  A    between atoms: _348  and  _350
REMARK  149  A    between atoms: _350  and  _351
REMARK  150  A    between atoms: _350  and  _353
REMARK  151  A    between atoms: _353  and  _354
REMARK  152  A    between atoms: _357  and  _359
REMARK  153  A    between atoms: _359  and  _360
REMARK  154  A    between atoms: _359  and  _362
REMARK  155  A    between atoms: _362  and  _363
REMARK  156  A    between atoms: _366  and  _368
REMARK  157  A    between atoms: _368  and  _369
REMARK  158  A    between atoms: _368  and  _371
REMARK  159  A    between atoms: _371  and  _372
REMARK  160  A    between atoms: _374  and  _376
REMARK  161  A    between atoms: _376  and  _377
REMARK  162  A    between atoms: _376  and  _379
REMARK  163  A    between atoms: _379  and  _380
REMARK  164  A    between atoms: _382  and  _384
REMARK  165  A    between atoms: _384  and  _385
REMARK  166  A    between atoms: _384  and  _387
REMARK  167  A    between atoms: _387  and  _388
REMARK  168  A    between atoms: _394  and  _396
REMARK  169  A    between atoms: _396  and  _397
REMARK  170  A    between atoms: _396  and  _399
REMARK  171  A    between atoms: _402  and  _404
REMARK  172  A    between atoms: _404  and  _405
REMARK  173  A    between atoms: _407  and  _409
REMARK  174  A    between atoms: _409  and  _410
REMARK  175  A    between atoms: _412  and  _414
REMARK  176  A    between atoms: _414  and  _415
REMARK  177  A    between atoms: _414  and  _417
REMARK  178  A    between atoms: _417  and  _418
REMARK  179  A    between atoms: _420  and  _422
REMARK  180  A    between atoms: _422  and  _423
REMARK  181  A    between atoms: _422  and  _425
REMARK  182  A    between atoms: _425  and  _426
REMARK  183  A    between atoms: _429  and  _431
REMARK  184  A    between atoms: _431  and  _432
REMARK  185  A    between atoms: _431  and  _434
REMARK  186  A    between atoms: _434  and  _435
REMARK  187  A    between atoms: _435  and  _436
REMARK  188  A    between atoms: _436  and  _437
REMARK  189  A    between atoms: _446  and  _448
REMARK  190  A    between atoms: _448  and  _449
REMARK  191  A    between atoms: _448  and  _451
REMARK  192  A    between atoms: _451  and  _452
REMARK  193  A    between atoms: _456  and  _457
REMARK  194  A    between atoms: _462  and  _464
REMARK  195  A    between atoms: _464  and  _465
REMARK  196  A    between atoms: _464  and  _467
REMARK  197  A    between atoms: _467  and  _468
REMARK  198  A    between atoms: _471  and  _473
REMARK  199  A    between atoms: _473  and  _474
REMARK  200  A    between atoms: _473  and  _476
REMARK  201  A    between atoms: _476  and  _477
REMARK  202  A    between atoms: _483  and  _484
REMARK  203  A    between atoms: _489  and  _491
REMARK  204  A    between atoms: _491  and  _492
REMARK  205  A    between atoms: _491  and  _494
REMARK  206  A    between atoms: _494  and  _495
REMARK  207  A    between atoms: _498  and  _500
REMARK  208  A    between atoms: _500  and  _501
REMARK  209  A    between atoms: _500  and  _503
REMARK  210  A    between atoms: _503  and  _504
REMARK  211  A    between atoms: _504  and  _505
REMARK  212  A    between atoms: _508  and  _510
REMARK  213  A    between atoms: _510  and  _511
REMARK  214  A    between atoms: _514  and  _516
REMARK  215  A    between atoms: _516  and  _517
REMARK  216  A    between atoms: _516  and  _519
REMARK                            x       y       z     vdW  Elec       q    Type
REMARK                         _______ _______ _______ _____ _____    ______ ____
ROOT
ATOM      1  O   HOH     1      26.072  42.365  19.890  0.00  0.00    +0.000 OA
ENDROOT
TORSDOF 0
REMARK  Name = ../refined-set-2016/1atr/1atr_pocket.pdb
REMARK  216 active torsions:
REMARK  status: ('A' for Active; 'I' for Inactive)
REMARK    1  A    between atoms: _1  and  _3
REMARK    2  A    between atoms: _3  and  _4
REMARK    3  A    between atoms: _3  and  _6
REMARK    4  A    between atoms: _6  and  _7
REMARK    5  A    between atoms: _10  and  _12
REMARK    6  A    between atoms: _12  and  _13
REMARK    7  A    between atoms: _12  and  _15
REMARK    8  A    between atoms: _15  and  _16
REMARK    9  A    between atoms: _19  and  _21
REMARK   10  A    between atoms: _21  and  _22
REMARK   11  A    between atoms: _24  and  _26
REMARK   12  A    between atoms: _26  and  _27
REMARK   13  A    between atoms: _26  and  _29
REMARK   14  A    between atoms: _29  and  _30
REMARK   15  A    between atoms: _33  and  _35
REMARK   16  A    between atoms: _35  and  _36
REMARK   17  A    between atoms: _35  and  _38
REMARK   18  A    between atoms: _38  and  _39
REMARK   19  A    between atoms: _42  and  _44
REMARK   20  A    between atoms: _44  and  _45
REMARK   21  A    between atoms: _44  and  _47
REMARK   22  A    between atoms: _47  and  _48
REMARK   23  A    between atoms: _53  and  _54
REMARK   24  A    between atoms: _56  and  _58
REMARK   25  A    between atoms: _58  and  _59
REMARK   26  A    between atoms: _58  and  _61
REMARK   27  A    between atoms: _61  and  _62
REMARK   28  A    between atoms: _64  and  _66
REMARK   29  A    between atoms: _66  and  _67
REMARK   30  A    between atoms: _66  and  _69
REMARK   31  A    between atoms: _71  and  _73
REMARK   32  A    between atoms: _73  and  _74
REMARK   33  A    between atoms: _73  and  _76
REMARK   34  A    between atoms: _76  and  _77
REMARK   35  A    between atoms: _80  and  _82
REMARK   36  A    between atoms: _82  and  _83
REMARK   37  A    between atoms: _82  and  _85
REMARK   38  A    between atoms: _85  and  _86
REMARK   39  A    between atoms: _90  and  _91
REMARK   40  A    between atoms: _96  and  _98
REMARK   41  A    between atoms: _98  and  _99
REMARK   42  A    between atoms: _98  and  _101
REMARK   43  A    between atoms: _101  and  _102
REMARK   44  A    between atoms: _104  and  _106
REMARK   45  A    between atoms: _106  and  _107
REMARK   46  A    between atoms: _106  and  _109
REMARK   47  A    between atoms: _109  and  _110
REMARK   48  A    between atoms: _110  and  _111
REMARK   49  A    between atoms: _111  and  _112
REMARK   50  A    between atoms: _112  and  _113
REMARK   51  A    between atoms: _117  and  _119
REMARK   52  A    between atoms: _119  and  _120
REMARK   53  A    between atoms: _119  and  _122
REMARK   54  A    between atoms: _122  and  _123
REMARK   55  A    between atoms: _126  and  _128
REMARK   56  A    between atoms: _128  and  _129
REMARK   57  A    between atoms: _128  and  _131
REMARK   58  A    between atoms: _131  and  _132
REMARK   59  A    between atoms: _132  and  _133
REMARK   60  A    between atoms: _133  and  _134
REMARK   61  A    between atoms: _134  and  _135
REMARK   62  A    between atoms: _139  and  _141
REMARK   63  A    between atoms: _141  and  _142
REMARK   64  A    between atoms: _141  and  _144
REMARK   65  A    between atoms: _144  and  _145
REMARK   66  A    between atoms: _145  and  _146
REMARK   67  A    between atoms: _146  and  _147
REMARK   68  A    between atoms: _156  and  _158
REMARK   69  A    between atoms: _158  and  _159
REMARK   70  A    between atoms: _158  and  _161
REMARK   71  A    between atoms: _161  and  _162
REMARK   72  A    between atoms: _162  and  _163
REMARK   73  A    between atoms: _166  and  _168
REMARK   74  A    between atoms: _168  and  _169
REMARK   75  A    between atoms: _168  and  _171
REMARK   76  A    between atoms: _171  and  _172
REMARK   77  A    between atoms: _175  and  _177
REMARK   78  A    between atoms: _177  and  _178
REMARK   79  A    between atoms: _177  and  _180
REMARK   80  A    between atoms: _180  and  _181
REMARK   81  A    between atoms: _184  and  _186
REMARK   82  A    between atoms: _186  and  _187
REMARK   83  A    between atoms: _189  and  _191
REMARK   84  A    between atoms: _191  and  _192
REMARK   85  A    between atoms: _194  and  _196
REMARK   86  A    between atoms: _196  and  _197
REMARK   87  A    between atoms: _199  and  _201
REMARK   88  A    between atoms: _201  and  _202
REMARK   89  A    between atoms: _201  and  _204
REMARK   90  A    between atoms: _207  and  _209
REMARK   91  A    between atoms: _209  and  _210
REMARK   92  A    between atoms: _209  and  _212
REMARK   93  A    between atoms: _212  and  _213
REMARK   94  A    between atoms: _219  and  _221
REMARK   95  A    between atoms: _221  and  _222
REMARK   96  A    between atoms: _221  and  _224
REMARK   97  A    between atoms: _224  and  _225
REMARK   98  A    between atoms: _228  and  _230
REMARK   99  A    between atoms: _230  and  _231
REMARK  100  A    between atoms: _233  and  _235
REMARK  101  A    between atoms: _235  and  _236
REMARK  102  A    between atoms: _238  and  _240
REMARK  103  A    between atoms: _240  and  _241
REMARK  104  A    between atoms: _240  and  _243
REMARK  105  A    between atoms: _243  and  _244
REMARK  106  A    between atoms: _244  and  _245
REMARK  107  A    between atoms: _248  and  _250
REMARK  108  A    between atoms: _250  and  _251
REMARK  109  A    between atoms: _250  and  _253
REMARK  110  A    between atoms: _253  and  _254
REMARK  111  A    between atoms: _257  and  _259
REMARK  112  A    between atoms: _259  and  _260
REMARK  113  A    between atoms: _259  and  _262
REMARK  114  A    between atoms: _262  and  _263
REMARK  115  A    between atoms: _269  and  _271
REMARK  116  A    between atoms: _271  and  _272
REMARK  117  A    between atoms: _271  and  _274
REMARK  118  A    between atoms: _274  and  _275
REMARK  119  A    between atoms: _278  and  _280
REMARK  120  A    between atoms: _280  and  _281
REMARK  121  A    between atoms: _280  and  _283
REMARK  122  A    between atoms: _285  and  _287
REMARK  123  A    between atoms: _287  and  _288
REMARK  124  A    between atoms: _287  and  _290
REMARK  125  A    between atoms: _290  and  _291
REMARK  126  A    between atoms: _291  and  _292
REMARK  127  A    between atoms: _295  and  _297
REMARK  128  A    between atoms: _297  and  _298
REMARK  129  A    between atoms: _297  and  _300
REMARK  130  A    between atoms: _300  and  _301
REMARK  131  A    between atoms: _301  and  _302
REMARK  132  A    between atoms: _302  and  _303
REMARK  133  A    between atoms: _312  and  _314
REMARK  134  A    between atoms: _314  and  _315
REMARK  135  A    between atoms: _318  and  _320
REMARK  136  A    between atoms: _320  and  _321
REMARK  137  A    between atoms: _320  and  _323
REMARK  138  A    between atoms: _323  and  _324
REMARK  139  A    between atoms: _324  and  _325
REMARK  140  A    between atoms: _325  and  _326
REMARK  141  A    between atoms: _326  and  _327
REMARK  142  A    between atoms: _331  and  _333
REMARK  143  A    between atoms: _333  and  _334
REMARK  144  A    between atoms: _333  and  _336
REMARK  145  A    between atoms: _336  and  _337
REMARK  146  A    between atoms: _337  and  _338
REMARK  147  A    between atoms: _338  and  _339
REMARK  148  A    between atoms: _348  and  _350
REMARK  149  A    between atoms: _350  and  _351
REMARK  150  A    between atoms: _350  and  _353
REMARK  151  A    between atoms: _353  and  _354
REMARK  152  A    between atoms: _357  and  _359
REMARK  153  A    between atoms: _359  and  _360
REMARK  154  A    between atoms: _359  and  _362
REMARK  155  A    between atoms: _362  and  _363
REMARK  156  A    between atoms: _366  and  _368
REMARK  157  A    between atoms: _368  and  _369
REMARK  158  A    between atoms: _368  and  _371
REMARK  159  A    between atoms: _371  and  _372
REMARK  160  A    between atoms: _374  and  _376
REMARK  161  A    between atoms: _376  and  _377
REMARK  162  A    between atoms: _376  and  _379
REMARK  163  A    between atoms: _379  and  _380
REMARK  164  A    between atoms: _382  and  _384
REMARK  165  A    between atoms: _384  and  _385
REMARK  166  A    between atoms: _384  and  _387
REMARK  167  A    between atoms: _387  and  _388
REMARK  168  A    between atoms: _394  and  _396
REMARK  169  A    between atoms: _396  and  _397
REMARK  170  A    between atoms: _396  and  _399
REMARK  171  A    between atoms: _402  and  _404
REMARK  172  A    between atoms: _404  and  _405
REMARK  173  A    between atoms: _407  and  _409
REMARK  174  A    between atoms: _409  and  _410
REMARK  175  A    between atoms: _412  and  _414
REMARK  176  A    between atoms: _414  and  _415
REMARK  177  A    between atoms: _414  and  _417
REMARK  178  A    between atoms: _417  and  _418
REMARK  179  A    between atoms: _420  and  _422
REMARK  180  A    between atoms: _422  and  _423
REMARK  181  A    between atoms: _422  and  _425
REMARK  182  A    between atoms: _425  and  _426
REMARK  183  A    between atoms: _429  and  _431
REMARK  184  A    between atoms: _431  and  _432
REMARK  185  A    between atoms: _431  and  _434
REMARK  186  A    between atoms: _434  and  _435
REMARK  187  A    between atoms: _435  and  _436
REMARK  188  A    between atoms: _436  and  _437
REMARK  189  A    between atoms: _446  and  _448
REMARK  190  A    between atoms: _448  and  _449
REMARK  191  A    between atoms: _448  and  _451
REMARK  192  A    between atoms: _451  and  _452
REMARK  193  A    between atoms: _456  and  _457
REMARK  194  A    between atoms: _462  and  _464
REMARK  195  A    between atoms: _464  and  _465
REMARK  196  A    between atoms: _464  and  _467
REMARK  197  A    between atoms: _467  and  _468
REMARK  198  A    between atoms: _471  and  _473
REMARK  199  A    between atoms: _473  and  _474
REMARK  200  A    between atoms: _473  and  _476
REMARK  201  A    between atoms: _476  and  _477
REMARK  202  A    between atoms: _483  and  _484
REMARK  203  A    between atoms: _489  and  _491
REMARK  204  A    between atoms: _491  and  _492
REMARK  205  A    between atoms: _491  and  _494
REMARK  206  A    between atoms: _494  and  _495
REMARK  207  A    between atoms: _498  and  _500
REMARK  208  A    between atoms: _500  and  _501
REMARK  209  A    between atoms: _500  and  _503
REMARK  210  A    between atoms: _503  and  _504
REMARK  211  A    between atoms: _504  and  _505
REMARK  212  A    between atoms: _508  and  _510
REMARK  213  A    between atoms: _510  and  _511
REMARK  214  A    between atoms: _514  and  _516
REMARK  215  A    between atoms: _516  and  _517
REMARK  216  A    between atoms: _516  and  _519
REMARK                            x       y       z     vdW  Elec       q    Type
REMARK                         _______ _______ _______ _____ _____    ______ ____
ROOT
ATOM      1  O   HOH     1      28.492  43.514  20.988  0.00  0.00    +0.000 OA
ENDROOT
TORSDOF 0
REMARK  Name = ../refined-set-2016/1atr/1atr_pocket.pdb
REMARK  216 active torsions:
REMARK  status: ('A' for Active; 'I' for Inactive)
REMARK    1  A    between atoms: _1  and  _3
REMARK    2  A    between atoms: _3  and  _4
REMARK    3  A    between atoms: _3  and  _6
REMARK    4  A    between atoms: _6  and  _7
REMARK    5  A    between atoms: _10  and  _12
REMARK    6  A    between atoms: _12  and  _13
REMARK    7  A    between atoms: _12  and  _15
REMARK    8  A    between atoms: _15  and  _16
REMARK    9  A    between atoms: _19  and  _21
REMARK   10  A    between atoms: _21  and  _22
REMARK   11  A    between atoms: _24  and  _26
REMARK   12  A    between atoms: _26  and  _27
REMARK   13  A    between atoms: _26  and  _29
REMARK   14  A    between atoms: _29  and  _30
REMARK   15  A    between atoms: _33  and  _35
REMARK   16  A    between atoms: _35  and  _36
REMARK   17  A    between atoms: _35  and  _38
REMARK   18  A    between atoms: _38  and  _39
REMARK   19  A    between atoms: _42  and  _44
REMARK   20  A    between atoms: _44  and  _45
REMARK   21  A    between atoms: _44  and  _47
REMARK   22  A    between atoms: _47  and  _48
REMARK   23  A    between atoms: _53  and  _54
REMARK   24  A    between atoms: _56  and  _58
REMARK   25  A    between atoms: _58  and  _59
REMARK   26  A    between atoms: _58  and  _61
REMARK   27  A    between atoms: _61  and  _62
REMARK   28  A    between atoms: _64  and  _66
REMARK   29  A    between atoms: _66  and  _67
REMARK   30  A    between atoms: _66  and  _69
REMARK   31  A    between atoms: _71  and  _73
REMARK   32  A    between atoms: _73  and  _74
REMARK   33  A    between atoms: _73  and  _76
REMARK   34  A    between atoms: _76  and  _77
REMARK   35  A    between atoms: _80  and  _82
REMARK   36  A    between atoms: _82  and  _83
REMARK   37  A    between atoms: _82  and  _85
REMARK   38  A    between atoms: _85  and  _86
REMARK   39  A    between atoms: _90  and  _91
REMARK   40  A    between atoms: _96  and  _98
REMARK   41  A    between atoms: _98  and  _99
REMARK   42  A    between atoms: _98  and  _101
REMARK   43  A    between atoms: _101  and  _102
REMARK   44  A    between atoms: _104  and  _106
REMARK   45  A    between atoms: _106  and  _107
REMARK   46  A    between atoms: _106  and  _109
REMARK   47  A    between atoms: _109  and  _110
REMARK   48  A    between atoms: _110  and  _111
REMARK   49  A    between atoms: _111  and  _112
REMARK   50  A    between atoms: _112  and  _113
REMARK   51  A    between atoms: _117  and  _119
REMARK   52  A    between atoms: _119  and  _120
REMARK   53  A    between atoms: _119  and  _122
REMARK   54  A    between atoms: _122  and  _123
REMARK   55  A    between atoms: _126  and  _128
REMARK   56  A    between atoms: _128  and  _129
REMARK   57  A    between atoms: _128  and  _131
REMARK   58  A    between atoms: _131  and  _132
REMARK   59  A    between atoms: _132  and  _133
REMARK   60  A    between atoms: _133  and  _134
REMARK   61  A    between atoms: _134  and  _135
REMARK   62  A    between atoms: _139  and  _141
REMARK   63  A    between atoms: _141  and  _142
REMARK   64  A    between atoms: _141  and  _144
REMARK   65  A    between atoms: _144  and  _145
REMARK   66  A    between atoms: _145  and  _146
REMARK   67  A    between atoms: _146  and  _147
REMARK   68  A    between atoms: _156  and  _158
REMARK   69  A    between atoms: _158  and  _159
REMARK   70  A    between atoms: _158  and  _161
REMARK   71  A    between atoms: _161  and  _162
REMARK   72  A    between atoms: _162  and  _163
REMARK   73  A    between atoms: _166  and  _168
REMARK   74  A    between atoms: _168  and  _169
REMARK   75  A    between atoms: _168  and  _171
REMARK   76  A    between atoms: _171  and  _172
REMARK   77  A    between atoms: _175  and  _177
REMARK   78  A    between atoms: _177  and  _178
REMARK   79  A    between atoms: _177  and  _180
REMARK   80  A    between atoms: _180  and  _181
REMARK   81  A    between atoms: _184  and  _186
REMARK   82  A    between atoms: _186  and  _187
REMARK   83  A    between atoms: _189  and  _191
REMARK   84  A    between atoms: _191  and  _192
REMARK   85  A    between atoms: _194  and  _196
REMARK   86  A    between atoms: _196  and  _197
REMARK   87  A    between atoms: _199  and  _201
REMARK   88  A    between atoms: _201  and  _202
REMARK   89  A    between atoms: _201  and  _204
REMARK   90  A    between atoms: _207  and  _209
REMARK   91  A    between atoms: _209  and  _210
REMARK   92  A    between atoms: _209  and  _212
REMARK   93  A    between atoms: _212  and  _213
REMARK   94  A    between atoms: _219  and  _221
REMARK   95  A    between atoms: _221  and  _222
REMARK   96  A    between atoms: _221  and  _224
REMARK   97  A    between atoms: _224  and  _225
REMARK   98  A    between atoms: _228  and  _230
REMARK   99  A    between atoms: _230  and  _231
REMARK  100  A    between atoms: _233  and  _235
REMARK  101  A    between atoms: _235  and  _236
REMARK  102  A    between atoms: _238  and  _240
REMARK  103  A    between atoms: _240  and  _241
REMARK  104  A    between atoms: _240  and  _243
REMARK  105  A    between atoms: _243  and  _244
REMARK  106  A    between atoms: _244  and  _245
REMARK  107  A    between atoms: _248  and  _250
REMARK  108  A    between atoms: _250  and  _251
REMARK  109  A    between atoms: _250  and  _253
REMARK  110  A    between atoms: _253  and  _254
REMARK  111  A    between atoms: _257  and  _259
REMARK  112  A    between atoms: _259  and  _260
REMARK  113  A    between atoms: _259  and  _262
REMARK  114  A    between atoms: _262  and  _263
REMARK  115  A    between atoms: _269  and  _271
REMARK  116  A    between atoms: _271  and  _272
REMARK  117  A    between atoms: _271  and  _274
REMARK  118  A    between atoms: _274  and  _275
REMARK  119  A    between atoms: _278  and  _280
REMARK  120  A    between atoms: _280  and  _281
REMARK  121  A    between atoms: _280  and  _283
REMARK  122  A    between atoms: _285  and  _287
REMARK  123  A    between atoms: _287  and  _288
REMARK  124  A    between atoms: _287  and  _290
REMARK  125  A    between atoms: _290  and  _291
REMARK  126  A    between atoms: _291  and  _292
REMARK  127  A    between atoms: _295  and  _297
REMARK  128  A    between atoms: _297  and  _298
REMARK  129  A    between atoms: _297  and  _300
REMARK  130  A    between atoms: _300  and  _301
REMARK  131  A    between atoms: _301  and  _302
REMARK  132  A    between atoms: _302  and  _303
REMARK  133  A    between atoms: _312  and  _314
REMARK  134  A    between atoms: _314  and  _315
REMARK  135  A    between atoms: _318  and  _320
REMARK  136  A    between atoms: _320  and  _321
REMARK  137  A    between atoms: _320  and  _323
REMARK  138  A    between atoms: _323  and  _324
REMARK  139  A    between atoms: _324  and  _325
REMARK  140  A    between atoms: _325  and  _326
REMARK  141  A    between atoms: _326  and  _327
REMARK  142  A    between atoms: _331  and  _333
REMARK  143  A    between atoms: _333  and  _334
REMARK  144  A    between atoms: _333  and  _336
REMARK  145  A    between atoms: _336  and  _337
REMARK  146  A    between atoms: _337  and  _338
REMARK  147  A    between atoms: _338  and  _339
REMARK  148  A    between atoms: _348  and  _350
REMARK  149  A    between atoms: _350  and  _351
REMARK  150  A    between atoms: _350  and  _353
REMARK  151  A    between atoms: _353  and  _354
REMARK  152  A    between atoms: _357  and  _359
REMARK  153  A    between atoms: _359  and  _360
REMARK  154  A    between atoms: _359  and  _362
REMARK  155  A    between atoms: _362  and  _363
REMARK  156  A    between atoms: _366  and  _368
REMARK  157  A    between atoms: _368  and  _369
REMARK  158  A    between atoms: _368  and  _371
REMARK  159  A    between atoms: _371  and  _372
REMARK  160  A    between atoms: _374  and  _376
REMARK  161  A    between atoms: _376  and  _377
REMARK  162  A    between atoms: _376  and  _379
REMARK  163  A    between atoms: _379  and  _380
REMARK  164  A    between atoms: _382  and  _384
REMARK  165  A    between atoms: _384  and  _385
REMARK  166  A    between atoms: _384  and  _387
REMARK  167  A    between atoms: _387  and  _388
REMARK  168  A    between atoms: _394  and  _396
REMARK  169  A    between atoms: _396  and  _397
REMARK  170  A    between atoms: _396  and  _399
REMARK  171  A    between atoms: _402  and  _404
REMARK  172  A    between atoms: _404  and  _405
REMARK  173  A    between atoms: _407  and  _409
REMARK  174  A    between atoms: _409  and  _410
REMARK  175  A    between atoms: _412  and  _414
REMARK  176  A    between atoms: _414  and  _415
REMARK  177  A    between atoms: _414  and  _417
REMARK  178  A    between atoms: _417  and  _418
REMARK  179  A    between atoms: _420  and  _422
REMARK  180  A    between atoms: _422  and  _423
REMARK  181  A    between atoms: _422  and  _425
REMARK  182  A    between atoms: _425  and  _426
REMARK  183  A    between atoms: _429  and  _431
REMARK  184  A    between atoms: _431  and  _432
REMARK  185  A    between atoms: _431  and  _434
REMARK  186  A    between atoms: _434  and  _435
REMARK  187  A    between atoms: _435  and  _436
REMARK  188  A    between atoms: _436  and  _437
REMARK  189  A    between atoms: _446  and  _448
REMARK  190  A    between atoms: _448  and  _449
REMARK  191  A    between atoms: _448  and  _451
REMARK  192  A    between atoms: _451  and  _452
REMARK  193  A    between atoms: _456  and  _457
REMARK  194  A    between atoms: _462  and  _464
REMARK  195  A    between atoms: _464  and  _465
REMARK  196  A    between atoms: _464  and  _467
REMARK  197  A    between atoms: _467  and  _468
REMARK  198  A    between atoms: _471  and  _473
REMARK  199  A    between atoms: _473  and  _474
REMARK  200  A    between atoms: _473  and  _476
REMARK  201  A    between atoms: _476  and  _477
REMARK  202  A    between atoms: _483  and  _484
REMARK  203  A    between atoms: _489  and  _491
REMARK  204  A    between atoms: _491  and  _492
REMARK  205  A    between atoms: _491  and  _494
REMARK  206  A    between atoms: _494  and  _495
REMARK  207  A    between atoms: _498  and  _500
REMARK  208  A    between atoms: _500  and  _501
REMARK  209  A    between atoms: _500  and  _503
REMARK  210  A    between atoms: _503  and  _504
REMARK  211  A    between atoms: _504  and  _505
REMARK  212  A    between atoms: _508  and  _510
REMARK  213  A    between atoms: _510  and  _511
REMARK  214  A    between atoms: _514  and  _516
REMARK  215  A    between atoms: _516  and  _517
REMARK  216  A    between atoms: _516  and  _519
REMARK                            x       y       z     vdW  Elec       q    Type
REMARK                         _______ _______ _______ _____ _____    ______ ____
ROOT
ATOM      1  O   HOH     1      26.552  42.794  13.013  0.00  0.00    +0.000 OA
ENDROOT
TORSDOF 0
REMARK  Name = ../refined-set-2016/1atr/1atr_pocket.pdb
REMARK  216 active torsions:
REMARK  status: ('A' for Active; 'I' for Inactive)
REMARK    1  A    between atoms: _1  and  _3
REMARK    2  A    between atoms: _3  and  _4
REMARK    3  A    between atoms: _3  and  _6
REMARK    4  A    between atoms: _6  and  _7
REMARK    5  A    between atoms: _10  and  _12
REMARK    6  A    between atoms: _12  and  _13
REMARK    7  A    between atoms: _12  and  _15
REMARK    8  A    between atoms: _15  and  _16
REMARK    9  A    between atoms: _19  and  _21
REMARK   10  A    between atoms: _21  and  _22
REMARK   11  A    between atoms: _24  and  _26
REMARK   12  A    between atoms: _26  and  _27
REMARK   13  A    between atoms: _26  and  _29
REMARK   14  A    between atoms: _29  and  _30
REMARK   15  A    between atoms: _33  and  _35
REMARK   16  A    between atoms: _35  and  _36
REMARK   17  A    between atoms: _35  and  _38
REMARK   18  A    between atoms: _38  and  _39
REMARK   19  A    between atoms: _42  and  _44
REMARK   20  A    between atoms: _44  and  _45
REMARK   21  A    between atoms: _44  and  _47
REMARK   22  A    between atoms: _47  and  _48
REMARK   23  A    between atoms: _53  and  _54
REMARK   24  A    between atoms: _56  and  _58
REMARK   25  A    between atoms: _58  and  _59
REMARK   26  A    between atoms: _58  and  _61
REMARK   27  A    between atoms: _61  and  _62
REMARK   28  A    between atoms: _64  and  _66
REMARK   29  A    between atoms: _66  and  _67
REMARK   30  A    between atoms: _66  and  _69
REMARK   31  A    between atoms: _71  and  _73
REMARK   32  A    between atoms: _73  and  _74
REMARK   33  A    between atoms: _73  and  _76
REMARK   34  A    between atoms: _76  and  _77
REMARK   35  A    between atoms: _80  and  _82
REMARK   36  A    between atoms: _82  and  _83
REMARK   37  A    between atoms: _82  and  _85
REMARK   38  A    between atoms: _85  and  _86
REMARK   39  A    between atoms: _90  and  _91
REMARK   40  A    between atoms: _96  and  _98
REMARK   41  A    between atoms: _98  and  _99
REMARK   42  A    between atoms: _98  and  _101
REMARK   43  A    between atoms: _101  and  _102
REMARK   44  A    between atoms: _104  and  _106
REMARK   45  A    between atoms: _106  and  _107
REMARK   46  A    between atoms: _106  and  _109
REMARK   47  A    between atoms: _109  and  _110
REMARK   48  A    between atoms: _110  and  _111
REMARK   49  A    between atoms: _111  and  _112
REMARK   50  A    between atoms: _112  and  _113
REMARK   51  A    between atoms: _117  and  _119
REMARK   52  A    between atoms: _119  and  _120
REMARK   53  A    between atoms: _119  and  _122
REMARK   54  A    between atoms: _122  and  _123
REMARK   55  A    between atoms: _126  and  _128
REMARK   56  A    between atoms: _128  and  _129
REMARK   57  A    between atoms: _128  and  _131
REMARK   58  A    between atoms: _131  and  _132
REMARK   59  A    between atoms: _132  and  _133
REMARK   60  A    between atoms: _133  and  _134
REMARK   61  A    between atoms: _134  and  _135
REMARK   62  A    between atoms: _139  and  _141
REMARK   63  A    between atoms: _141  and  _142
REMARK   64  A    between atoms: _141  and  _144
REMARK   65  A    between atoms: _144  and  _145
REMARK   66  A    between atoms: _145  and  _146
REMARK   67  A    between atoms: _146  and  _147
REMARK   68  A    between atoms: _156  and  _158
REMARK   69  A    between atoms: _158  and  _159
REMARK   70  A    between atoms: _158  and  _161
REMARK   71  A    between atoms: _161  and  _162
REMARK   72  A    between atoms: _162  and  _163
REMARK   73  A    between atoms: _166  and  _168
REMARK   74  A    between atoms: _168  and  _169
REMARK   75  A    between atoms: _168  and  _171
REMARK   76  A    between atoms: _171  and  _172
REMARK   77  A    between atoms: _175  and  _177
REMARK   78  A    between atoms: _177  and  _178
REMARK   79  A    between atoms: _177  and  _180
REMARK   80  A    between atoms: _180  and  _181
REMARK   81  A    between atoms: _184  and  _186
REMARK   82  A    between atoms: _186  and  _187
REMARK   83  A    between atoms: _189  and  _191
REMARK   84  A    between atoms: _191  and  _192
REMARK   85  A    between atoms: _194  and  _196
REMARK   86  A    between atoms: _196  and  _197
REMARK   87  A    between atoms: _199  and  _201
REMARK   88  A    between atoms: _201  and  _202
REMARK   89  A    between atoms: _201  and  _204
REMARK   90  A    between atoms: _207  and  _209
REMARK   91  A    between atoms: _209  and  _210
REMARK   92  A    between atoms: _209  and  _212
REMARK   93  A    between atoms: _212  and  _213
REMARK   94  A    between atoms: _219  and  _221
REMARK   95  A    between atoms: _221  and  _222
REMARK   96  A    between atoms: _221  and  _224
REMARK   97  A    between atoms: _224  and  _225
REMARK   98  A    between atoms: _228  and  _230
REMARK   99  A    between atoms: _230  and  _231
REMARK  100  A    between atoms: _233  and  _235
REMARK  101  A    between atoms: _235  and  _236
REMARK  102  A    between atoms: _238  and  _240
REMARK  103  A    between atoms: _240  and  _241
REMARK  104  A    between atoms: _240  and  _243
REMARK  105  A    between atoms: _243  and  _244
REMARK  106  A    between atoms: _244  and  _245
REMARK  107  A    between atoms: _248  and  _250
REMARK  108  A    between atoms: _250  and  _251
REMARK  109  A    between atoms: _250  and  _253
REMARK  110  A    between atoms: _253  and  _254
REMARK  111  A    between atoms: _257  and  _259
REMARK  112  A    between atoms: _259  and  _260
REMARK  113  A    between atoms: _259  and  _262
REMARK  114  A    between atoms: _262  and  _263
REMARK  115  A    between atoms: _269  and  _271
REMARK  116  A    between atoms: _271  and  _272
REMARK  117  A    between atoms: _271  and  _274
REMARK  118  A    between atoms: _274  and  _275
REMARK  119  A    between atoms: _278  and  _280
REMARK  120  A    between atoms: _280  and  _281
REMARK  121  A    between atoms: _280  and  _283
REMARK  122  A    between atoms: _285  and  _287
REMARK  123  A    between atoms: _287  and  _288
REMARK  124  A    between atoms: _287  and  _290
REMARK  125  A    between atoms: _290  and  _291
REMARK  126  A    between atoms: _291  and  _292
REMARK  127  A    between atoms: _295  and  _297
REMARK  128  A    between atoms: _297  and  _298
REMARK  129  A    between atoms: _297  and  _300
REMARK  130  A    between atoms: _300  and  _301
REMARK  131  A    between atoms: _301  and  _302
REMARK  132  A    between atoms: _302  and  _303
REMARK  133  A    between atoms: _312  and  _314
REMARK  134  A    between atoms: _314  and  _315
REMARK  135  A    between atoms: _318  and  _320
REMARK  136  A    between atoms: _320  and  _321
REMARK  137  A    between atoms: _320  and  _323
REMARK  138  A    between atoms: _323  and  _324
REMARK  139  A    between atoms: _324  and  _325
REMARK  140  A    between atoms: _325  and  _326
REMARK  141  A    between atoms: _326  and  _327
REMARK  142  A    between atoms: _331  and  _333
REMARK  143  A    between atoms: _333  and  _334
REMARK  144  A    between atoms: _333  and  _336
REMARK  145  A    between atoms: _336  and  _337
REMARK  146  A    between atoms: _337  and  _338
REMARK  147  A    between atoms: _338  and  _339
REMARK  148  A    between atoms: _348  and  _350
REMARK  149  A    between atoms: _350  and  _351
REMARK  150  A    between atoms: _350  and  _353
REMARK  151  A    between atoms: _353  and  _354
REMARK  152  A    between atoms: _357  and  _359
REMARK  153  A    between atoms: _359  and  _360
REMARK  154  A    between atoms: _359  and  _362
REMARK  155  A    between atoms: _362  and  _363
REMARK  156  A    between atoms: _366  and  _368
REMARK  157  A    between atoms: _368  and  _369
REMARK  158  A    between atoms: _368  and  _371
REMARK  159  A    between atoms: _371  and  _372
REMARK  160  A    between atoms: _374  and  _376
REMARK  161  A    between atoms: _376  and  _377
REMARK  162  A    between atoms: _376  and  _379
REMARK  163  A    between atoms: _379  and  _380
REMARK  164  A    between atoms: _382  and  _384
REMARK  165  A    between atoms: _384  and  _385
REMARK  166  A    between atoms: _384  and  _387
REMARK  167  A    between atoms: _387  and  _388
REMARK  168  A    between atoms: _394  and  _396
REMARK  169  A    between atoms: _396  and  _397
REMARK  170  A    between atoms: _396  and  _399
REMARK  171  A    between atoms: _402  and  _404
REMARK  172  A    between atoms: _404  and  _405
REMARK  173  A    between atoms: _407  and  _409
REMARK  174  A    between atoms: _409  and  _410
REMARK  175  A    between atoms: _412  and  _414
REMARK  176  A    between atoms: _414  and  _415
REMARK  177  A    between atoms: _414  and  _417
REMARK  178  A    between atoms: _417  and  _418
REMARK  179  A    between atoms: _420  and  _422
REMARK  180  A    between atoms: _422  and  _423
REMARK  181  A    between atoms: _422  and  _425
REMARK  182  A    between atoms: _425  and  _426
REMARK  183  A    between atoms: _429  and  _431
REMARK  184  A    between atoms: _431  and  _432
REMARK  185  A    between atoms: _431  and  _434
REMARK  186  A    between atoms: _434  and  _435
REMARK  187  A    between atoms: _435  and  _436
REMARK  188  A    between atoms: _436  and  _437
REMARK  189  A    between atoms: _446  and  _448
REMARK  190  A    between atoms: _448  and  _449
REMARK  191  A    between atoms: _448  and  _451
REMARK  192  A    between atoms: _451  and  _452
REMARK  193  A    between atoms: _456  and  _457
REMARK  194  A    between atoms: _462  and  _464
REMARK  195  A    between atoms: _464  and  _465
REMARK  196  A    between atoms: _464  and  _467
REMARK  197  A    between atoms: _467  and  _468
REMARK  198  A    between atoms: _471  and  _473
REMARK  199  A    between atoms: _473  and  _474
REMARK  200  A    between atoms: _473  and  _476
REMARK  201  A    between atoms: _476  and  _477
REMARK  202  A    between atoms: _483  and  _484
REMARK  203  A    between atoms: _489  and  _491
REMARK  204  A    between atoms: _491  and  _492
REMARK  205  A    between atoms: _491  and  _494
REMARK  206  A    between atoms: _494  and  _495
REMARK  207  A    between atoms: _498  and  _500
REMARK  208  A    between atoms: _500  and  _501
REMARK  209  A    between atoms: _500  and  _503
REMARK  210  A    between atoms: _503  and  _504
REMARK  211  A    between atoms: _504  and  _505
REMARK  212  A    between atoms: _508  and  _510
REMARK  213  A    between atoms: _510  and  _511
REMARK  214  A    between atoms: _514  and  _516
REMARK  215  A    between atoms: _516  and  _517
REMARK  216  A    between atoms: _516  and  _519
REMARK                            x       y       z     vdW  Elec       q    Type
REMARK                         _______ _______ _______ _____ _____    ______ ____
ROOT
ATOM      1  O   HOH     1      28.170  40.795   8.262  0.00  0.00    +0.000 OA
ENDROOT
TORSDOF 0
REMARK  Name = ../refined-set-2016/1atr/1atr_pocket.pdb
REMARK  216 active torsions:
REMARK  status: ('A' for Active; 'I' for Inactive)
REMARK    1  A    between atoms: _1  and  _3
REMARK    2  A    between atoms: _3  and  _4
REMARK    3  A    between atoms: _3  and  _6
REMARK    4  A    between atoms: _6  and  _7
REMARK    5  A    between atoms: _10  and  _12
REMARK    6  A    between atoms: _12  and  _13
REMARK    7  A    between atoms: _12  and  _15
REMARK    8  A    between atoms: _15  and  _16
REMARK    9  A    between atoms: _19  and  _21
REMARK   10  A    between atoms: _21  and  _22
REMARK   11  A    between atoms: _24  and  _26
REMARK   12  A    between atoms: _26  and  _27
REMARK   13  A    between atoms: _26  and  _29
REMARK   14  A    between atoms: _29  and  _30
REMARK   15  A    between atoms: _33  and  _35
REMARK   16  A    between atoms: _35  and  _36
REMARK   17  A    between atoms: _35  and  _38
REMARK   18  A    between atoms: _38  and  _39
REMARK   19  A    between atoms: _42  and  _44
REMARK   20  A    between atoms: _44  and  _45
REMARK   21  A    between atoms: _44  and  _47
REMARK   22  A    between atoms: _47  and  _48
REMARK   23  A    between atoms: _53  and  _54
REMARK   24  A    between atoms: _56  and  _58
REMARK   25  A    between atoms: _58  and  _59
REMARK   26  A    between atoms: _58  and  _61
REMARK   27  A    between atoms: _61  and  _62
REMARK   28  A    between atoms: _64  and  _66
REMARK   29  A    between atoms: _66  and  _67
REMARK   30  A    between atoms: _66  and  _69
REMARK   31  A    between atoms: _71  and  _73
REMARK   32  A    between atoms: _73  and  _74
REMARK   33  A    between atoms: _73  and  _76
REMARK   34  A    between atoms: _76  and  _77
REMARK   35  A    between atoms: _80  and  _82
REMARK   36  A    between atoms: _82  and  _83
REMARK   37  A    between atoms: _82  and  _85
REMARK   38  A    between atoms: _85  and  _86
REMARK   39  A    between atoms: _90  and  _91
REMARK   40  A    between atoms: _96  and  _98
REMARK   41  A    between atoms: _98  and  _99
REMARK   42  A    between atoms: _98  and  _101
REMARK   43  A    between atoms: _101  and  _102
REMARK   44  A    between atoms: _104  and  _106
REMARK   45  A    between atoms: _106  and  _107
REMARK   46  A    between atoms: _106  and  _109
REMARK   47  A    between atoms: _109  and  _110
REMARK   48  A    between atoms: _110  and  _111
REMARK   49  A    between atoms: _111  and  _112
REMARK   50  A    between atoms: _112  and  _113
REMARK   51  A    between atoms: _117  and  _119
REMARK   52  A    between atoms: _119  and  _120
REMARK   53  A    between atoms: _119  and  _122
REMARK   54  A    between atoms: _122  and  _123
REMARK   55  A    between atoms: _126  and  _128
REMARK   56  A    between atoms: _128  and  _129
REMARK   57  A    between atoms: _128  and  _131
REMARK   58  A    between atoms: _131  and  _132
REMARK   59  A    between atoms: _132  and  _133
REMARK   60  A    between atoms: _133  and  _134
REMARK   61  A    between atoms: _134  and  _135
REMARK   62  A    between atoms: _139  and  _141
REMARK   63  A    between atoms: _141  and  _142
REMARK   64  A    between atoms: _141  and  _144
REMARK   65  A    between atoms: _144  and  _145
REMARK   66  A    between atoms: _145  and  _146
REMARK   67  A    between atoms: _146  and  _147
REMARK   68  A    between atoms: _156  and  _158
REMARK   69  A    between atoms: _158  and  _159
REMARK   70  A    between atoms: _158  and  _161
REMARK   71  A    between atoms: _161  and  _162
REMARK   72  A    between atoms: _162  and  _163
REMARK   73  A    between atoms: _166  and  _168
REMARK   74  A    between atoms: _168  and  _169
REMARK   75  A    between atoms: _168  and  _171
REMARK   76  A    between atoms: _171  and  _172
REMARK   77  A    between atoms: _175  and  _177
REMARK   78  A    between atoms: _177  and  _178
REMARK   79  A    between atoms: _177  and  _180
REMARK   80  A    between atoms: _180  and  _181
REMARK   81  A    between atoms: _184  and  _186
REMARK   82  A    between atoms: _186  and  _187
REMARK   83  A    between atoms: _189  and  _191
REMARK   84  A    between atoms: _191  and  _192
REMARK   85  A    between atoms: _194  and  _196
REMARK   86  A    between atoms: _196  and  _197
REMARK   87  A    between atoms: _199  and  _201
REMARK   88  A    between atoms: _201  and  _202
REMARK   89  A    between atoms: _201  and  _204
REMARK   90  A    between atoms: _207  and  _209
REMARK   91  A    between atoms: _209  and  _210
REMARK   92  A    between atoms: _209  and  _212
REMARK   93  A    between atoms: _212  and  _213
REMARK   94  A    between atoms: _219  and  _221
REMARK   95  A    between atoms: _221  and  _222
REMARK   96  A    between atoms: _221  and  _224
REMARK   97  A    between atoms: _224  and  _225
REMARK   98  A    between atoms: _228  and  _230
REMARK   99  A    between atoms: _230  and  _231
REMARK  100  A    between atoms: _233  and  _235
REMARK  101  A    between atoms: _235  and  _236
REMARK  102  A    between atoms: _238  and  _240
REMARK  103  A    between atoms: _240  and  _241
REMARK  104  A    between atoms: _240  and  _243
REMARK  105  A    between atoms: _243  and  _244
REMARK  106  A    between atoms: _244  and  _245
REMARK  107  A    between atoms: _248  and  _250
REMARK  108  A    between atoms: _250  and  _251
REMARK  109  A    between atoms: _250  and  _253
REMARK  110  A    between atoms: _253  and  _254
REMARK  111  A    between atoms: _257  and  _259
REMARK  112  A    between atoms: _259  and  _260
REMARK  113  A    between atoms: _259  and  _262
REMARK  114  A    between atoms: _262  and  _263
REMARK  115  A    between atoms: _269  and  _271
REMARK  116  A    between atoms: _271  and  _272
REMARK  117  A    between atoms: _271  and  _274
REMARK  118  A    between atoms: _274  and  _275
REMARK  119  A    between atoms: _278  and  _280
REMARK  120  A    between atoms: _280  and  _281
REMARK  121  A    between atoms: _280  and  _283
REMARK  122  A    between atoms: _285  and  _287
REMARK  123  A    between atoms: _287  and  _288
REMARK  124  A    between atoms: _287  and  _290
REMARK  125  A    between atoms: _290  and  _291
REMARK  126  A    between atoms: _291  and  _292
REMARK  127  A    between atoms: _295  and  _297
REMARK  128  A    between atoms: _297  and  _298
REMARK  129  A    between atoms: _297  and  _300
REMARK  130  A    between atoms: _300  and  _301
REMARK  131  A    between atoms: _301  and  _302
REMARK  132  A    between atoms: _302  and  _303
REMARK  133  A    between atoms: _312  and  _314
REMARK  134  A    between atoms: _314  and  _315
REMARK  135  A    between atoms: _318  and  _320
REMARK  136  A    between atoms: _320  and  _321
REMARK  137  A    between atoms: _320  and  _323
REMARK  138  A    between atoms: _323  and  _324
REMARK  139  A    between atoms: _324  and  _325
REMARK  140  A    between atoms: _325  and  _326
REMARK  141  A    between atoms: _326  and  _327
REMARK  142  A    between atoms: _331  and  _333
REMARK  143  A    between atoms: _333  and  _334
REMARK  144  A    between atoms: _333  and  _336
REMARK  145  A    between atoms: _336  and  _337
REMARK  146  A    between atoms: _337  and  _338
REMARK  147  A    between atoms: _338  and  _339
REMARK  148  A    between atoms: _348  and  _350
REMARK  149  A    between atoms: _350  and  _351
REMARK  150  A    between atoms: _350  and  _353
REMARK  151  A    between atoms: _353  and  _354
REMARK  152  A    between atoms: _357  and  _359
REMARK  153  A    between atoms: _359  and  _360
REMARK  154  A    between atoms: _359  and  _362
REMARK  155  A    between atoms: _362  and  _363
REMARK  156  A    between atoms: _366  and  _368
REMARK  157  A    between atoms: _368  and  _369
REMARK  158  A    between atoms: _368  and  _371
REMARK  159  A    between atoms: _371  and  _372
REMARK  160  A    between atoms: _374  and  _376
REMARK  161  A    between atoms: _376  and  _377
REMARK  162  A    between atoms: _376  and  _379
REMARK  163  A    between atoms: _379  and  _380
REMARK  164  A    between atoms: _382  and  _384
REMARK  165  A    between atoms: _384  and  _385
REMARK  166  A    between atoms: _384  and  _387
REMARK  167  A    between atoms: _387  and  _388
REMARK  168  A    between atoms: _394  and  _396
REMARK  169  A    between atoms: _396  and  _397
REMARK  170  A    between atoms: _396  and  _399
REMARK  171  A    between atoms: _402  and  _404
REMARK  172  A    between atoms: _404  and  _405
REMARK  173  A    between atoms: _407  and  _409
REMARK  174  A    between atoms: _409  and  _410
REMARK  175  A    between atoms: _412  and  _414
REMARK  176  A    between atoms: _414  and  _415
REMARK  177  A    between atoms: _414  and  _417
REMARK  178  A    between atoms: _417  and  _418
REMARK  179  A    between atoms: _420  and  _422
REMARK  180  A    between atoms: _422  and  _423
REMARK  181  A    between atoms: _422  and  _425
REMARK  182  A    between atoms: _425  and  _426
REMARK  183  A    between atoms: _429  and  _431
REMARK  184  A    between atoms: _431  and  _432
REMARK  185  A    between atoms: _431  and  _434
REMARK  186  A    between atoms: _434  and  _435
REMARK  187  A    between atoms: _435  and  _436
REMARK  188  A    between atoms: _436  and  _437
REMARK  189  A    between atoms: _446  and  _448
REMARK  190  A    between atoms: _448  and  _449
REMARK  191  A    between atoms: _448  and  _451
REMARK  192  A    between atoms: _451  and  _452
REMARK  193  A    between atoms: _456  and  _457
REMARK  194  A    between atoms: _462  and  _464
REMARK  195  A    between atoms: _464  and  _465
REMARK  196  A    between atoms: _464  and  _467
REMARK  197  A    between atoms: _467  and  _468
REMARK  198  A    between atoms: _471  and  _473
REMARK  199  A    between atoms: _473  and  _474
REMARK  200  A    between atoms: _473  and  _476
REMARK  201  A    between atoms: _476  and  _477
REMARK  202  A    between atoms: _483  and  _484
REMARK  203  A    between atoms: _489  and  _491
REMARK  204  A    between atoms: _491  and  _492
REMARK  205  A    between atoms: _491  and  _494
REMARK  206  A    between atoms: _494  and  _495
REMARK  207  A    between atoms: _498  and  _500
REMARK  208  A    between atoms: _500  and  _501
REMARK  209  A    between atoms: _500  and  _503
REMARK  210  A    between atoms: _503  and  _504
REMARK  211  A    between atoms: _504  and  _505
REMARK  212  A    between atoms: _508  and  _510
REMARK  213  A    between atoms: _510  and  _511
REMARK  214  A    between atoms: _514  and  _516
REMARK  215  A    between atoms: _516  and  _517
REMARK  216  A    between atoms: _516  and  _519
REMARK                            x       y       z     vdW  Elec       q    Type
REMARK                         _______ _______ _______ _____ _____    ______ ____
ROOT
ATOM      1  O   HOH     1      21.437  28.129  16.740  0.00  0.00    +0.000 OA
ENDROOT
TORSDOF 0
REMARK  Name = ../refined-set-2016/1atr/1atr_pocket.pdb
REMARK  216 active torsions:
REMARK  status: ('A' for Active; 'I' for Inactive)
REMARK    1  A    between atoms: _1  and  _3
REMARK    2  A    between atoms: _3  and  _4
REMARK    3  A    between atoms: _3  and  _6
REMARK    4  A    between atoms: _6  and  _7
REMARK    5  A    between atoms: _10  and  _12
REMARK    6  A    between atoms: _12  and  _13
REMARK    7  A    between atoms: _12  and  _15
REMARK    8  A    between atoms: _15  and  _16
REMARK    9  A    between atoms: _19  and  _21
REMARK   10  A    between atoms: _21  and  _22
REMARK   11  A    between atoms: _24  and  _26
REMARK   12  A    between atoms: _26  and  _27
REMARK   13  A    between atoms: _26  and  _29
REMARK   14  A    between atoms: _29  and  _30
REMARK   15  A    between atoms: _33  and  _35
REMARK   16  A    between atoms: _35  and  _36
REMARK   17  A    between atoms: _35  and  _38
REMARK   18  A    between atoms: _38  and  _39
REMARK   19  A    between atoms: _42  and  _44
REMARK   20  A    between atoms: _44  and  _45
REMARK   21  A    between atoms: _44  and  _47
REMARK   22  A    between atoms: _47  and  _48
REMARK   23  A    between atoms: _53  and  _54
REMARK   24  A    between atoms: _56  and  _58
REMARK   25  A    between atoms: _58  and  _59
REMARK   26  A    between atoms: _58  and  _61
REMARK   27  A    between atoms: _61  and  _62
REMARK   28  A    between atoms: _64  and  _66
REMARK   29  A    between atoms: _66  and  _67
REMARK   30  A    between atoms: _66  and  _69
REMARK   31  A    between atoms: _71  and  _73
REMARK   32  A    between atoms: _73  and  _74
REMARK   33  A    between atoms: _73  and  _76
REMARK   34  A    between atoms: _76  and  _77
REMARK   35  A    between atoms: _80  and  _82
REMARK   36  A    between atoms: _82  and  _83
REMARK   37  A    between atoms: _82  and  _85
REMARK   38  A    between atoms: _85  and  _86
REMARK   39  A    between atoms: _90  and  _91
REMARK   40  A    between atoms: _96  and  _98
REMARK   41  A    between atoms: _98  and  _99
REMARK   42  A    between atoms: _98  and  _101
REMARK   43  A    between atoms: _101  and  _102
REMARK   44  A    between atoms: _104  and  _106
REMARK   45  A    between atoms: _106  and  _107
REMARK   46  A    between atoms: _106  and  _109
REMARK   47  A    between atoms: _109  and  _110
REMARK   48  A    between atoms: _110  and  _111
REMARK   49  A    between atoms: _111  and  _112
REMARK   50  A    between atoms: _112  and  _113
REMARK   51  A    between atoms: _117  and  _119
REMARK   52  A    between atoms: _119  and  _120
REMARK   53  A    between atoms: _119  and  _122
REMARK   54  A    between atoms: _122  and  _123
REMARK   55  A    between atoms: _126  and  _128
REMARK   56  A    between atoms: _128  and  _129
REMARK   57  A    between atoms: _128  and  _131
REMARK   58  A    between atoms: _131  and  _132
REMARK   59  A    between atoms: _132  and  _133
REMARK   60  A    between atoms: _133  and  _134
REMARK   61  A    between atoms: _134  and  _135
REMARK   62  A    between atoms: _139  and  _141
REMARK   63  A    between atoms: _141  and  _142
REMARK   64  A    between atoms: _141  and  _144
REMARK   65  A    between atoms: _144  and  _145
REMARK   66  A    between atoms: _145  and  _146
REMARK   67  A    between atoms: _146  and  _147
REMARK   68  A    between atoms: _156  and  _158
REMARK   69  A    between atoms: _158  and  _159
REMARK   70  A    between atoms: _158  and  _161
REMARK   71  A    between atoms: _161  and  _162
REMARK   72  A    between atoms: _162  and  _163
REMARK   73  A    between atoms: _166  and  _168
REMARK   74  A    between atoms: _168  and  _169
REMARK   75  A    between atoms: _168  and  _171
REMARK   76  A    between atoms: _171  and  _172
REMARK   77  A    between atoms: _175  and  _177
REMARK   78  A    between atoms: _177  and  _178
REMARK   79  A    between atoms: _177  and  _180
REMARK   80  A    between atoms: _180  and  _181
REMARK   81  A    between atoms: _184  and  _186
REMARK   82  A    between atoms: _186  and  _187
REMARK   83  A    between atoms: _189  and  _191
REMARK   84  A    between atoms: _191  and  _192
REMARK   85  A    between atoms: _194  and  _196
REMARK   86  A    between atoms: _196  and  _197
REMARK   87  A    between atoms: _199  and  _201
REMARK   88  A    between atoms: _201  and  _202
REMARK   89  A    between atoms: _201  and  _204
REMARK   90  A    between atoms: _207  and  _209
REMARK   91  A    between atoms: _209  and  _210
REMARK   92  A    between atoms: _209  and  _212
REMARK   93  A    between atoms: _212  and  _213
REMARK   94  A    between atoms: _219  and  _221
REMARK   95  A    between atoms: _221  and  _222
REMARK   96  A    between atoms: _221  and  _224
REMARK   97  A    between atoms: _224  and  _225
REMARK   98  A    between atoms: _228  and  _230
REMARK   99  A    between atoms: _230  and  _231
REMARK  100  A    between atoms: _233  and  _235
REMARK  101  A    between atoms: _235  and  _236
REMARK  102  A    between atoms: _238  and  _240
REMARK  103  A    between atoms: _240  and  _241
REMARK  104  A    between atoms: _240  and  _243
REMARK  105  A    between atoms: _243  and  _244
REMARK  106  A    between atoms: _244  and  _245
REMARK  107  A    between atoms: _248  and  _250
REMARK  108  A    between atoms: _250  and  _251
REMARK  109  A    between atoms: _250  and  _253
REMARK  110  A    between atoms: _253  and  _254
REMARK  111  A    between atoms: _257  and  _259
REMARK  112  A    between atoms: _259  and  _260
REMARK  113  A    between atoms: _259  and  _262
REMARK  114  A    between atoms: _262  and  _263
REMARK  115  A    between atoms: _269  and  _271
REMARK  116  A    between atoms: _271  and  _272
REMARK  117  A    between atoms: _271  and  _274
REMARK  118  A    between atoms: _274  and  _275
REMARK  119  A    between atoms: _278  and  _280
REMARK  120  A    between atoms: _280  and  _281
REMARK  121  A    between atoms: _280  and  _283
REMARK  122  A    between atoms: _285  and  _287
REMARK  123  A    between atoms: _287  and  _288
REMARK  124  A    between atoms: _287  and  _290
REMARK  125  A    between atoms: _290  and  _291
REMARK  126  A    between atoms: _291  and  _292
REMARK  127  A    between atoms: _295  and  _297
REMARK  128  A    between atoms: _297  and  _298
REMARK  129  A    between atoms: _297  and  _300
REMARK  130  A    between atoms: _300  and  _301
REMARK  131  A    between atoms: _301  and  _302
REMARK  132  A    between atoms: _302  and  _303
REMARK  133  A    between atoms: _312  and  _314
REMARK  134  A    between atoms: _314  and  _315
REMARK  135  A    between atoms: _318  and  _320
REMARK  136  A    between atoms: _320  and  _321
REMARK  137  A    between atoms: _320  and  _323
REMARK  138  A    between atoms: _323  and  _324
REMARK  139  A    between atoms: _324  and  _325
REMARK  140  A    between atoms: _325  and  _326
REMARK  141  A    between atoms: _326  and  _327
REMARK  142  A    between atoms: _331  and  _333
REMARK  143  A    between atoms: _333  and  _334
REMARK  144  A    between atoms: _333  and  _336
REMARK  145  A    between atoms: _336  and  _337
REMARK  146  A    between atoms: _337  and  _338
REMARK  147  A    between atoms: _338  and  _339
REMARK  148  A    between atoms: _348  and  _350
REMARK  149  A    between atoms: _350  and  _351
REMARK  150  A    between atoms: _350  and  _353
REMARK  151  A    between atoms: _353  and  _354
REMARK  152  A    between atoms: _357  and  _359
REMARK  153  A    between atoms: _359  and  _360
REMARK  154  A    between atoms: _359  and  _362
REMARK  155  A    between atoms: _362  and  _363
REMARK  156  A    between atoms: _366  and  _368
REMARK  157  A    between atoms: _368  and  _369
REMARK  158  A    between atoms: _368  and  _371
REMARK  159  A    between atoms: _371  and  _372
REMARK  160  A    between atoms: _374  and  _376
REMARK  161  A    between atoms: _376  and  _377
REMARK  162  A    between atoms: _376  and  _379
REMARK  163  A    between atoms: _379  and  _380
REMARK  164  A    between atoms: _382  and  _384
REMARK  165  A    between atoms: _384  and  _385
REMARK  166  A    between atoms: _384  and  _387
REMARK  167  A    between atoms: _387  and  _388
REMARK  168  A    between atoms: _394  and  _396
REMARK  169  A    between atoms: _396  and  _397
REMARK  170  A    between atoms: _396  and  _399
REMARK  171  A    between atoms: _402  and  _404
REMARK  172  A    between atoms: _404  and  _405
REMARK  173  A    between atoms: _407  and  _409
REMARK  174  A    between atoms: _409  and  _410
REMARK  175  A    between atoms: _412  and  _414
REMARK  176  A    between atoms: _414  and  _415
REMARK  177  A    between atoms: _414  and  _417
REMARK  178  A    between atoms: _417  and  _418
REMARK  179  A    between atoms: _420  and  _422
REMARK  180  A    between atoms: _422  and  _423
REMARK  181  A    between atoms: _422  and  _425
REMARK  182  A    between atoms: _425  and  _426
REMARK  183  A    between atoms: _429  and  _431
REMARK  184  A    between atoms: _431  and  _432
REMARK  185  A    between atoms: _431  and  _434
REMARK  186  A    between atoms: _434  and  _435
REMARK  187  A    between atoms: _435  and  _436
REMARK  188  A    between atoms: _436  and  _437
REMARK  189  A    between atoms: _446  and  _448
REMARK  190  A    between atoms: _448  and  _449
REMARK  191  A    between atoms: _448  and  _451
REMARK  192  A    between atoms: _451  and  _452
REMARK  193  A    between atoms: _456  and  _457
REMARK  194  A    between atoms: _462  and  _464
REMARK  195  A    between atoms: _464  and  _465
REMARK  196  A    between atoms: _464  and  _467
REMARK  197  A    between atoms: _467  and  _468
REMARK  198  A    between atoms: _471  and  _473
REMARK  199  A    between atoms: _473  and  _474
REMARK  200  A    between atoms: _473  and  _476
REMARK  201  A    between atoms: _476  and  _477
REMARK  202  A    between atoms: _483  and  _484
REMARK  203  A    between atoms: _489  and  _491
REMARK  204  A    between atoms: _491  and  _492
REMARK  205  A    between atoms: _491  and  _494
REMARK  206  A    between atoms: _494  and  _495
REMARK  207  A    between atoms: _498  and  _500
REMARK  208  A    between atoms: _500  and  _501
REMARK  209  A    between atoms: _500  and  _503
REMARK  210  A    between atoms: _503  and  _504
REMARK  211  A    between atoms: _504  and  _505
REMARK  212  A    between atoms: _508  and  _510
REMARK  213  A    between atoms: _510  and  _511
REMARK  214  A    between atoms: _514  and  _516
REMARK  215  A    between atoms: _516  and  _517
REMARK  216  A    between atoms: _516  and  _519
REMARK                            x       y       z     vdW  Elec       q    Type
REMARK                         _______ _______ _______ _____ _____    ______ ____
ROOT
ATOM      1  O   HOH     1      18.464  28.304  13.601  0.00  0.00    +0.000 OA
ENDROOT
TORSDOF 0
REMARK  Name = ../refined-set-2016/1atr/1atr_pocket.pdb
REMARK  216 active torsions:
REMARK  status: ('A' for Active; 'I' for Inactive)
REMARK    1  A    between atoms: _1  and  _3
REMARK    2  A    between atoms: _3  and  _4
REMARK    3  A    between atoms: _3  and  _6
REMARK    4  A    between atoms: _6  and  _7
REMARK    5  A    between atoms: _10  and  _12
REMARK    6  A    between atoms: _12  and  _13
REMARK    7  A    between atoms: _12  and  _15
REMARK    8  A    between atoms: _15  and  _16
REMARK    9  A    between atoms: _19  and  _21
REMARK   10  A    between atoms: _21  and  _22
REMARK   11  A    between atoms: _24  and  _26
REMARK   12  A    between atoms: _26  and  _27
REMARK   13  A    between atoms: _26  and  _29
REMARK   14  A    between atoms: _29  and  _30
REMARK   15  A    between atoms: _33  and  _35
REMARK   16  A    between atoms: _35  and  _36
REMARK   17  A    between atoms: _35  and  _38
REMARK   18  A    between atoms: _38  and  _39
REMARK   19  A    between atoms: _42  and  _44
REMARK   20  A    between atoms: _44  and  _45
REMARK   21  A    between atoms: _44  and  _47
REMARK   22  A    between atoms: _47  and  _48
REMARK   23  A    between atoms: _53  and  _54
REMARK   24  A    between atoms: _56  and  _58
REMARK   25  A    between atoms: _58  and  _59
REMARK   26  A    between atoms: _58  and  _61
REMARK   27  A    between atoms: _61  and  _62
REMARK   28  A    between atoms: _64  and  _66
REMARK   29  A    between atoms: _66  and  _67
REMARK   30  A    between atoms: _66  and  _69
REMARK   31  A    between atoms: _71  and  _73
REMARK   32  A    between atoms: _73  and  _74
REMARK   33  A    between atoms: _73  and  _76
REMARK   34  A    between atoms: _76  and  _77
REMARK   35  A    between atoms: _80  and  _82
REMARK   36  A    between atoms: _82  and  _83
REMARK   37  A    between atoms: _82  and  _85
REMARK   38  A    between atoms: _85  and  _86
REMARK   39  A    between atoms: _90  and  _91
REMARK   40  A    between atoms: _96  and  _98
REMARK   41  A    between atoms: _98  and  _99
REMARK   42  A    between atoms: _98  and  _101
REMARK   43  A    between atoms: _101  and  _102
REMARK   44  A    between atoms: _104  and  _106
REMARK   45  A    between atoms: _106  and  _107
REMARK   46  A    between atoms: _106  and  _109
REMARK   47  A    between atoms: _109  and  _110
REMARK   48  A    between atoms: _110  and  _111
REMARK   49  A    between atoms: _111  and  _112
REMARK   50  A    between atoms: _112  and  _113
REMARK   51  A    between atoms: _117  and  _119
REMARK   52  A    between atoms: _119  and  _120
REMARK   53  A    between atoms: _119  and  _122
REMARK   54  A    between atoms: _122  and  _123
REMARK   55  A    between atoms: _126  and  _128
REMARK   56  A    between atoms: _128  and  _129
REMARK   57  A    between atoms: _128  and  _131
REMARK   58  A    between atoms: _131  and  _132
REMARK   59  A    between atoms: _132  and  _133
REMARK   60  A    between atoms: _133  and  _134
REMARK   61  A    between atoms: _134  and  _135
REMARK   62  A    between atoms: _139  and  _141
REMARK   63  A    between atoms: _141  and  _142
REMARK   64  A    between atoms: _141  and  _144
REMARK   65  A    between atoms: _144  and  _145
REMARK   66  A    between atoms: _145  and  _146
REMARK   67  A    between atoms: _146  and  _147
REMARK   68  A    between atoms: _156  and  _158
REMARK   69  A    between atoms: _158  and  _159
REMARK   70  A    between atoms: _158  and  _161
REMARK   71  A    between atoms: _161  and  _162
REMARK   72  A    between atoms: _162  and  _163
REMARK   73  A    between atoms: _166  and  _168
REMARK   74  A    between atoms: _168  and  _169
REMARK   75  A    between atoms: _168  and  _171
REMARK   76  A    between atoms: _171  and  _172
REMARK   77  A    between atoms: _175  and  _177
REMARK   78  A    between atoms: _177  and  _178
REMARK   79  A    between atoms: _177  and  _180
REMARK   80  A    between atoms: _180  and  _181
REMARK   81  A    between atoms: _184  and  _186
REMARK   82  A    between atoms: _186  and  _187
REMARK   83  A    between atoms: _189  and  _191
REMARK   84  A    between atoms: _191  and  _192
REMARK   85  A    between atoms: _194  and  _196
REMARK   86  A    between atoms: _196  and  _197
REMARK   87  A    between atoms: _199  and  _201
REMARK   88  A    between atoms: _201  and  _202
REMARK   89  A    between atoms: _201  and  _204
REMARK   90  A    between atoms: _207  and  _209
REMARK   91  A    between atoms: _209  and  _210
REMARK   92  A    between atoms: _209  and  _212
REMARK   93  A    between atoms: _212  and  _213
REMARK   94  A    between atoms: _219  and  _221
REMARK   95  A    between atoms: _221  and  _222
REMARK   96  A    between atoms: _221  and  _224
REMARK   97  A    between atoms: _224  and  _225
REMARK   98  A    between atoms: _228  and  _230
REMARK   99  A    between atoms: _230  and  _231
REMARK  100  A    between atoms: _233  and  _235
REMARK  101  A    between atoms: _235  and  _236
REMARK  102  A    between atoms: _238  and  _240
REMARK  103  A    between atoms: _240  and  _241
REMARK  104  A    between atoms: _240  and  _243
REMARK  105  A    between atoms: _243  and  _244
REMARK  106  A    between atoms: _244  and  _245
REMARK  107  A    between atoms: _248  and  _250
REMARK  108  A    between atoms: _250  and  _251
REMARK  109  A    between atoms: _250  and  _253
REMARK  110  A    between atoms: _253  and  _254
REMARK  111  A    between atoms: _257  and  _259
REMARK  112  A    between atoms: _259  and  _260
REMARK  113  A    between atoms: _259  and  _262
REMARK  114  A    between atoms: _262  and  _263
REMARK  115  A    between atoms: _269  and  _271
REMARK  116  A    between atoms: _271  and  _272
REMARK  117  A    between atoms: _271  and  _274
REMARK  118  A    between atoms: _274  and  _275
REMARK  119  A    between atoms: _278  and  _280
REMARK  120  A    between atoms: _280  and  _281
REMARK  121  A    between atoms: _280  and  _283
REMARK  122  A    between atoms: _285  and  _287
REMARK  123  A    between atoms: _287  and  _288
REMARK  124  A    between atoms: _287  and  _290
REMARK  125  A    between atoms: _290  and  _291
REMARK  126  A    between atoms: _291  and  _292
REMARK  127  A    between atoms: _295  and  _297
REMARK  128  A    between atoms: _297  and  _298
REMARK  129  A    between atoms: _297  and  _300
REMARK  130  A    between atoms: _300  and  _301
REMARK  131  A    between atoms: _301  and  _302
REMARK  132  A    between atoms: _302  and  _303
REMARK  133  A    between atoms: _312  and  _314
REMARK  134  A    between atoms: _314  and  _315
REMARK  135  A    between atoms: _318  and  _320
REMARK  136  A    between atoms: _320  and  _321
REMARK  137  A    between atoms: _320  and  _323
REMARK  138  A    between atoms: _323  and  _324
REMARK  139  A    between atoms: _324  and  _325
REMARK  140  A    between atoms: _325  and  _326
REMARK  141  A    between atoms: _326  and  _327
REMARK  142  A    between atoms: _331  and  _333
REMARK  143  A    between atoms: _333  and  _334
REMARK  144  A    between atoms: _333  and  _336
REMARK  145  A    between atoms: _336  and  _337
REMARK  146  A    between atoms: _337  and  _338
REMARK  147  A    between atoms: _338  and  _339
REMARK  148  A    between atoms: _348  and  _350
REMARK  149  A    between atoms: _350  and  _351
REMARK  150  A    between atoms: _350  and  _353
REMARK  151  A    between atoms: _353  and  _354
REMARK  152  A    between atoms: _357  and  _359
REMARK  153  A    between atoms: _359  and  _360
REMARK  154  A    between atoms: _359  and  _362
REMARK  155  A    between atoms: _362  and  _363
REMARK  156  A    between atoms: _366  and  _368
REMARK  157  A    between atoms: _368  and  _369
REMARK  158  A    between atoms: _368  and  _371
REMARK  159  A    between atoms: _371  and  _372
REMARK  160  A    between atoms: _374  and  _376
REMARK  161  A    between atoms: _376  and  _377
REMARK  162  A    between atoms: _376  and  _379
REMARK  163  A    between atoms: _379  and  _380
REMARK  164  A    between atoms: _382  and  _384
REMARK  165  A    between atoms: _384  and  _385
REMARK  166  A    between atoms: _384  and  _387
REMARK  167  A    between atoms: _387  and  _388
REMARK  168  A    between atoms: _394  and  _396
REMARK  169  A    between atoms: _396  and  _397
REMARK  170  A    between atoms: _396  and  _399
REMARK  171  A    between atoms: _402  and  _404
REMARK  172  A    between atoms: _404  and  _405
REMARK  173  A    between atoms: _407  and  _409
REMARK  174  A    between atoms: _409  and  _410
REMARK  175  A    between atoms: _412  and  _414
REMARK  176  A    between atoms: _414  and  _415
REMARK  177  A    between atoms: _414  and  _417
REMARK  178  A    between atoms: _417  and  _418
REMARK  179  A    between atoms: _420  and  _422
REMARK  180  A    between atoms: _422  and  _423
REMARK  181  A    between atoms: _422  and  _425
REMARK  182  A    between atoms: _425  and  _426
REMARK  183  A    between atoms: _429  and  _431
REMARK  184  A    between atoms: _431  and  _432
REMARK  185  A    between atoms: _431  and  _434
REMARK  186  A    between atoms: _434  and  _435
REMARK  187  A    between atoms: _435  and  _436
REMARK  188  A    between atoms: _436  and  _437
REMARK  189  A    between atoms: _446  and  _448
REMARK  190  A    between atoms: _448  and  _449
REMARK  191  A    between atoms: _448  and  _451
REMARK  192  A    between atoms: _451  and  _452
REMARK  193  A    between atoms: _456  and  _457
REMARK  194  A    between atoms: _462  and  _464
REMARK  195  A    between atoms: _464  and  _465
REMARK  196  A    between atoms: _464  and  _467
REMARK  197  A    between atoms: _467  and  _468
REMARK  198  A    between atoms: _471  and  _473
REMARK  199  A    between atoms: _473  and  _474
REMARK  200  A    between atoms: _473  and  _476
REMARK  201  A    between atoms: _476  and  _477
REMARK  202  A    between atoms: _483  and  _484
REMARK  203  A    between atoms: _489  and  _491
REMARK  204  A    between atoms: _491  and  _492
REMARK  205  A    between atoms: _491  and  _494
REMARK  206  A    between atoms: _494  and  _495
REMARK  207  A    between atoms: _498  and  _500
REMARK  208  A    between atoms: _500  and  _501
REMARK  209  A    between atoms: _500  and  _503
REMARK  210  A    between atoms: _503  and  _504
REMARK  211  A    between atoms: _504  and  _505
REMARK  212  A    between atoms: _508  and  _510
REMARK  213  A    between atoms: _510  and  _511
REMARK  214  A    between atoms: _514  and  _516
REMARK  215  A    between atoms: _516  and  _517
REMARK  216  A    between atoms: _516  and  _519
REMARK                            x       y       z     vdW  Elec       q    Type
REMARK                         _______ _______ _______ _____ _____    ______ ____
ROOT
ATOM      1  O   HOH     1      23.759  27.499  11.693  0.00  0.00    +0.000 OA
ENDROOT
TORSDOF 0
REMARK  Name = ../refined-set-2016/1atr/1atr_pocket.pdb
REMARK  216 active torsions:
REMARK  status: ('A' for Active; 'I' for Inactive)
REMARK    1  A    between atoms: _1  and  _3
REMARK    2  A    between atoms: _3  and  _4
REMARK    3  A    between atoms: _3  and  _6
REMARK    4  A    between atoms: _6  and  _7
REMARK    5  A    between atoms: _10  and  _12
REMARK    6  A    between atoms: _12  and  _13
REMARK    7  A    between atoms: _12  and  _15
REMARK    8  A    between atoms: _15  and  _16
REMARK    9  A    between atoms: _19  and  _21
REMARK   10  A    between atoms: _21  and  _22
REMARK   11  A    between atoms: _24  and  _26
REMARK   12  A    between atoms: _26  and  _27
REMARK   13  A    between atoms: _26  and  _29
REMARK   14  A    between atoms: _29  and  _30
REMARK   15  A    between atoms: _33  and  _35
REMARK   16  A    between atoms: _35  and  _36
REMARK   17  A    between atoms: _35  and  _38
REMARK   18  A    between atoms: _38  and  _39
REMARK   19  A    between atoms: _42  and  _44
REMARK   20  A    between atoms: _44  and  _45
REMARK   21  A    between atoms: _44  and  _47
REMARK   22  A    between atoms: _47  and  _48
REMARK   23  A    between atoms: _53  and  _54
REMARK   24  A    between atoms: _56  and  _58
REMARK   25  A    between atoms: _58  and  _59
REMARK   26  A    between atoms: _58  and  _61
REMARK   27  A    between atoms: _61  and  _62
REMARK   28  A    between atoms: _64  and  _66
REMARK   29  A    between atoms: _66  and  _67
REMARK   30  A    between atoms: _66  and  _69
REMARK   31  A    between atoms: _71  and  _73
REMARK   32  A    between atoms: _73  and  _74
REMARK   33  A    between atoms: _73  and  _76
REMARK   34  A    between atoms: _76  and  _77
REMARK   35  A    between atoms: _80  and  _82
REMARK   36  A    between atoms: _82  and  _83
REMARK   37  A    between atoms: _82  and  _85
REMARK   38  A    between atoms: _85  and  _86
REMARK   39  A    between atoms: _90  and  _91
REMARK   40  A    between atoms: _96  and  _98
REMARK   41  A    between atoms: _98  and  _99
REMARK   42  A    between atoms: _98  and  _101
REMARK   43  A    between atoms: _101  and  _102
REMARK   44  A    between atoms: _104  and  _106
REMARK   45  A    between atoms: _106  and  _107
REMARK   46  A    between atoms: _106  and  _109
REMARK   47  A    between atoms: _109  and  _110
REMARK   48  A    between atoms: _110  and  _111
REMARK   49  A    between atoms: _111  and  _112
REMARK   50  A    between atoms: _112  and  _113
REMARK   51  A    between atoms: _117  and  _119
REMARK   52  A    between atoms: _119  and  _120
REMARK   53  A    between atoms: _119  and  _122
REMARK   54  A    between atoms: _122  and  _123
REMARK   55  A    between atoms: _126  and  _128
REMARK   56  A    between atoms: _128  and  _129
REMARK   57  A    between atoms: _128  and  _131
REMARK   58  A    between atoms: _131  and  _132
REMARK   59  A    between atoms: _132  and  _133
REMARK   60  A    between atoms: _133  and  _134
REMARK   61  A    between atoms: _134  and  _135
REMARK   62  A    between atoms: _139  and  _141
REMARK   63  A    between atoms: _141  and  _142
REMARK   64  A    between atoms: _141  and  _144
REMARK   65  A    between atoms: _144  and  _145
REMARK   66  A    between atoms: _145  and  _146
REMARK   67  A    between atoms: _146  and  _147
REMARK   68  A    between atoms: _156  and  _158
REMARK   69  A    between atoms: _158  and  _159
REMARK   70  A    between atoms: _158  and  _161
REMARK   71  A    between atoms: _161  and  _162
REMARK   72  A    between atoms: _162  and  _163
REMARK   73  A    between atoms: _166  and  _168
REMARK   74  A    between atoms: _168  and  _169
REMARK   75  A    between atoms: _168  and  _171
REMARK   76  A    between atoms: _171  and  _172
REMARK   77  A    between atoms: _175  and  _177
REMARK   78  A    between atoms: _177  and  _178
REMARK   79  A    between atoms: _177  and  _180
REMARK   80  A    between atoms: _180  and  _181
REMARK   81  A    between atoms: _184  and  _186
REMARK   82  A    between atoms: _186  and  _187
REMARK   83  A    between atoms: _189  and  _191
REMARK   84  A    between atoms: _191  and  _192
REMARK   85  A    between atoms: _194  and  _196
REMARK   86  A    between atoms: _196  and  _197
REMARK   87  A    between atoms: _199  and  _201
REMARK   88  A    between atoms: _201  and  _202
REMARK   89  A    between atoms: _201  and  _204
REMARK   90  A    between atoms: _207  and  _209
REMARK   91  A    between atoms: _209  and  _210
REMARK   92  A    between atoms: _209  and  _212
REMARK   93  A    between atoms: _212  and  _213
REMARK   94  A    between atoms: _219  and  _221
REMARK   95  A    between atoms: _221  and  _222
REMARK   96  A    between atoms: _221  and  _224
REMARK   97  A    between atoms: _224  and  _225
REMARK   98  A    between atoms: _228  and  _230
REMARK   99  A    between atoms: _230  and  _231
REMARK  100  A    between atoms: _233  and  _235
REMARK  101  A    between atoms: _235  and  _236
REMARK  102  A    between atoms: _238  and  _240
REMARK  103  A    between atoms: _240  and  _241
REMARK  104  A    between atoms: _240  and  _243
REMARK  105  A    between atoms: _243  and  _244
REMARK  106  A    between atoms: _244  and  _245
REMARK  107  A    between atoms: _248  and  _250
REMARK  108  A    between atoms: _250  and  _251
REMARK  109  A    between atoms: _250  and  _253
REMARK  110  A    between atoms: _253  and  _254
REMARK  111  A    between atoms: _257  and  _259
REMARK  112  A    between atoms: _259  and  _260
REMARK  113  A    between atoms: _259  and  _262
REMARK  114  A    between atoms: _262  and  _263
REMARK  115  A    between atoms: _269  and  _271
REMARK  116  A    between atoms: _271  and  _272
REMARK  117  A    between atoms: _271  and  _274
REMARK  118  A    between atoms: _274  and  _275
REMARK  119  A    between atoms: _278  and  _280
REMARK  120  A    between atoms: _280  and  _281
REMARK  121  A    between atoms: _280  and  _283
REMARK  122  A    between atoms: _285  and  _287
REMARK  123  A    between atoms: _287  and  _288
REMARK  124  A    between atoms: _287  and  _290
REMARK  125  A    between atoms: _290  and  _291
REMARK  126  A    between atoms: _291  and  _292
REMARK  127  A    between atoms: _295  and  _297
REMARK  128  A    between atoms: _297  and  _298
REMARK  129  A    between atoms: _297  and  _300
REMARK  130  A    between atoms: _300  and  _301
REMARK  131  A    between atoms: _301  and  _302
REMARK  132  A    between atoms: _302  and  _303
REMARK  133  A    between atoms: _312  and  _314
REMARK  134  A    between atoms: _314  and  _315
REMARK  135  A    between atoms: _318  and  _320
REMARK  136  A    between atoms: _320  and  _321
REMARK  137  A    between atoms: _320  and  _323
REMARK  138  A    between atoms: _323  and  _324
REMARK  139  A    between atoms: _324  and  _325
REMARK  140  A    between atoms: _325  and  _326
REMARK  141  A    between atoms: _326  and  _327
REMARK  142  A    between atoms: _331  and  _333
REMARK  143  A    between atoms: _333  and  _334
REMARK  144  A    between atoms: _333  and  _336
REMARK  145  A    between atoms: _336  and  _337
REMARK  146  A    between atoms: _337  and  _338
REMARK  147  A    between atoms: _338  and  _339
REMARK  148  A    between atoms: _348  and  _350
REMARK  149  A    between atoms: _350  and  _351
REMARK  150  A    between atoms: _350  and  _353
REMARK  151  A    between atoms: _353  and  _354
REMARK  152  A    between atoms: _357  and  _359
REMARK  153  A    between atoms: _359  and  _360
REMARK  154  A    between atoms: _359  and  _362
REMARK  155  A    between atoms: _362  and  _363
REMARK  156  A    between atoms: _366  and  _368
REMARK  157  A    between atoms: _368  and  _369
REMARK  158  A    between atoms: _368  and  _371
REMARK  159  A    between atoms: _371  and  _372
REMARK  160  A    between atoms: _374  and  _376
REMARK  161  A    between atoms: _376  and  _377
REMARK  162  A    between atoms: _376  and  _379
REMARK  163  A    between atoms: _379  and  _380
REMARK  164  A    between atoms: _382  and  _384
REMARK  165  A    between atoms: _384  and  _385
REMARK  166  A    between atoms: _384  and  _387
REMARK  167  A    between atoms: _387  and  _388
REMARK  168  A    between atoms: _394  and  _396
REMARK  169  A    between atoms: _396  and  _397
REMARK  170  A    between atoms: _396  and  _399
REMARK  171  A    between atoms: _402  and  _404
REMARK  172  A    between atoms: _404  and  _405
REMARK  173  A    between atoms: _407  and  _409
REMARK  174  A    between atoms: _409  and  _410
REMARK  175  A    between atoms: _412  and  _414
REMARK  176  A    between atoms: _414  and  _415
REMARK  177  A    between atoms: _414  and  _417
REMARK  178  A    between atoms: _417  and  _418
REMARK  179  A    between atoms: _420  and  _422
REMARK  180  A    between atoms: _422  and  _423
REMARK  181  A    between atoms: _422  and  _425
REMARK  182  A    between atoms: _425  and  _426
REMARK  183  A    between atoms: _429  and  _431
REMARK  184  A    between atoms: _431  and  _432
REMARK  185  A    between atoms: _431  and  _434
REMARK  186  A    between atoms: _434  and  _435
REMARK  187  A    between atoms: _435  and  _436
REMARK  188  A    between atoms: _436  and  _437
REMARK  189  A    between atoms: _446  and  _448
REMARK  190  A    between atoms: _448  and  _449
REMARK  191  A    between atoms: _448  and  _451
REMARK  192  A    between atoms: _451  and  _452
REMARK  193  A    between atoms: _456  and  _457
REMARK  194  A    between atoms: _462  and  _464
REMARK  195  A    between atoms: _464  and  _465
REMARK  196  A    between atoms: _464  and  _467
REMARK  197  A    between atoms: _467  and  _468
REMARK  198  A    between atoms: _471  and  _473
REMARK  199  A    between atoms: _473  and  _474
REMARK  200  A    between atoms: _473  and  _476
REMARK  201  A    between atoms: _476  and  _477
REMARK  202  A    between atoms: _483  and  _484
REMARK  203  A    between atoms: _489  and  _491
REMARK  204  A    between atoms: _491  and  _492
REMARK  205  A    between atoms: _491  and  _494
REMARK  206  A    between atoms: _494  and  _495
REMARK  207  A    between atoms: _498  and  _500
REMARK  208  A    between atoms: _500  and  _501
REMARK  209  A    between atoms: _500  and  _503
REMARK  210  A    between atoms: _503  and  _504
REMARK  211  A    between atoms: _504  and  _505
REMARK  212  A    between atoms: _508  and  _510
REMARK  213  A    between atoms: _510  and  _511
REMARK  214  A    between atoms: _514  and  _516
REMARK  215  A    between atoms: _516  and  _517
REMARK  216  A    between atoms: _516  and  _519
REMARK                            x       y       z     vdW  Elec       q    Type
REMARK                         _______ _______ _______ _____ _____    ______ ____
ROOT
ATOM      1  O   HOH     1      21.470  24.256  15.193  0.00  0.00    +0.000 OA
ENDROOT
TORSDOF 0
REMARK  Name = ../refined-set-2016/1atr/1atr_pocket.pdb
REMARK  216 active torsions:
REMARK  status: ('A' for Active; 'I' for Inactive)
REMARK    1  A    between atoms: _1  and  _3
REMARK    2  A    between atoms: _3  and  _4
REMARK    3  A    between atoms: _3  and  _6
REMARK    4  A    between atoms: _6  and  _7
REMARK    5  A    between atoms: _10  and  _12
REMARK    6  A    between atoms: _12  and  _13
REMARK    7  A    between atoms: _12  and  _15
REMARK    8  A    between atoms: _15  and  _16
REMARK    9  A    between atoms: _19  and  _21
REMARK   10  A    between atoms: _21  and  _22
REMARK   11  A    between atoms: _24  and  _26
REMARK   12  A    between atoms: _26  and  _27
REMARK   13  A    between atoms: _26  and  _29
REMARK   14  A    between atoms: _29  and  _30
REMARK   15  A    between atoms: _33  and  _35
REMARK   16  A    between atoms: _35  and  _36
REMARK   17  A    between atoms: _35  and  _38
REMARK   18  A    between atoms: _38  and  _39
REMARK   19  A    between atoms: _42  and  _44
REMARK   20  A    between atoms: _44  and  _45
REMARK   21  A    between atoms: _44  and  _47
REMARK   22  A    between atoms: _47  and  _48
REMARK   23  A    between atoms: _53  and  _54
REMARK   24  A    between atoms: _56  and  _58
REMARK   25  A    between atoms: _58  and  _59
REMARK   26  A    between atoms: _58  and  _61
REMARK   27  A    between atoms: _61  and  _62
REMARK   28  A    between atoms: _64  and  _66
REMARK   29  A    between atoms: _66  and  _67
REMARK   30  A    between atoms: _66  and  _69
REMARK   31  A    between atoms: _71  and  _73
REMARK   32  A    between atoms: _73  and  _74
REMARK   33  A    between atoms: _73  and  _76
REMARK   34  A    between atoms: _76  and  _77
REMARK   35  A    between atoms: _80  and  _82
REMARK   36  A    between atoms: _82  and  _83
REMARK   37  A    between atoms: _82  and  _85
REMARK   38  A    between atoms: _85  and  _86
REMARK   39  A    between atoms: _90  and  _91
REMARK   40  A    between atoms: _96  and  _98
REMARK   41  A    between atoms: _98  and  _99
REMARK   42  A    between atoms: _98  and  _101
REMARK   43  A    between atoms: _101  and  _102
REMARK   44  A    between atoms: _104  and  _106
REMARK   45  A    between atoms: _106  and  _107
REMARK   46  A    between atoms: _106  and  _109
REMARK   47  A    between atoms: _109  and  _110
REMARK   48  A    between atoms: _110  and  _111
REMARK   49  A    between atoms: _111  and  _112
REMARK   50  A    between atoms: _112  and  _113
REMARK   51  A    between atoms: _117  and  _119
REMARK   52  A    between atoms: _119  and  _120
REMARK   53  A    between atoms: _119  and  _122
REMARK   54  A    between atoms: _122  and  _123
REMARK   55  A    between atoms: _126  and  _128
REMARK   56  A    between atoms: _128  and  _129
REMARK   57  A    between atoms: _128  and  _131
REMARK   58  A    between atoms: _131  and  _132
REMARK   59  A    between atoms: _132  and  _133
REMARK   60  A    between atoms: _133  and  _134
REMARK   61  A    between atoms: _134  and  _135
REMARK   62  A    between atoms: _139  and  _141
REMARK   63  A    between atoms: _141  and  _142
REMARK   64  A    between atoms: _141  and  _144
REMARK   65  A    between atoms: _144  and  _145
REMARK   66  A    between atoms: _145  and  _146
REMARK   67  A    between atoms: _146  and  _147
REMARK   68  A    between atoms: _156  and  _158
REMARK   69  A    between atoms: _158  and  _159
REMARK   70  A    between atoms: _158  and  _161
REMARK   71  A    between atoms: _161  and  _162
REMARK   72  A    between atoms: _162  and  _163
REMARK   73  A    between atoms: _166  and  _168
REMARK   74  A    between atoms: _168  and  _169
REMARK   75  A    between atoms: _168  and  _171
REMARK   76  A    between atoms: _171  and  _172
REMARK   77  A    between atoms: _175  and  _177
REMARK   78  A    between atoms: _177  and  _178
REMARK   79  A    between atoms: _177  and  _180
REMARK   80  A    between atoms: _180  and  _181
REMARK   81  A    between atoms: _184  and  _186
REMARK   82  A    between atoms: _186  and  _187
REMARK   83  A    between atoms: _189  and  _191
REMARK   84  A    between atoms: _191  and  _192
REMARK   85  A    between atoms: _194  and  _196
REMARK   86  A    between atoms: _196  and  _197
REMARK   87  A    between atoms: _199  and  _201
REMARK   88  A    between atoms: _201  and  _202
REMARK   89  A    between atoms: _201  and  _204
REMARK   90  A    between atoms: _207  and  _209
REMARK   91  A    between atoms: _209  and  _210
REMARK   92  A    between atoms: _209  and  _212
REMARK   93  A    between atoms: _212  and  _213
REMARK   94  A    between atoms: _219  and  _221
REMARK   95  A    between atoms: _221  and  _222
REMARK   96  A    between atoms: _221  and  _224
REMARK   97  A    between atoms: _224  and  _225
REMARK   98  A    between atoms: _228  and  _230
REMARK   99  A    between atoms: _230  and  _231
REMARK  100  A    between atoms: _233  and  _235
REMARK  101  A    between atoms: _235  and  _236
REMARK  102  A    between atoms: _238  and  _240
REMARK  103  A    between atoms: _240  and  _241
REMARK  104  A    between atoms: _240  and  _243
REMARK  105  A    between atoms: _243  and  _244
REMARK  106  A    between atoms: _244  and  _245
REMARK  107  A    between atoms: _248  and  _250
REMARK  108  A    between atoms: _250  and  _251
REMARK  109  A    between atoms: _250  and  _253
REMARK  110  A    between atoms: _253  and  _254
REMARK  111  A    between atoms: _257  and  _259
REMARK  112  A    between atoms: _259  and  _260
REMARK  113  A    between atoms: _259  and  _262
REMARK  114  A    between atoms: _262  and  _263
REMARK  115  A    between atoms: _269  and  _271
REMARK  116  A    between atoms: _271  and  _272
REMARK  117  A    between atoms: _271  and  _274
REMARK  118  A    between atoms: _274  and  _275
REMARK  119  A    between atoms: _278  and  _280
REMARK  120  A    between atoms: _280  and  _281
REMARK  121  A    between atoms: _280  and  _283
REMARK  122  A    between atoms: _285  and  _287
REMARK  123  A    between atoms: _287  and  _288
REMARK  124  A    between atoms: _287  and  _290
REMARK  125  A    between atoms: _290  and  _291
REMARK  126  A    between atoms: _291  and  _292
REMARK  127  A    between atoms: _295  and  _297
REMARK  128  A    between atoms: _297  and  _298
REMARK  129  A    between atoms: _297  and  _300
REMARK  130  A    between atoms: _300  and  _301
REMARK  131  A    between atoms: _301  and  _302
REMARK  132  A    between atoms: _302  and  _303
REMARK  133  A    between atoms: _312  and  _314
REMARK  134  A    between atoms: _314  and  _315
REMARK  135  A    between atoms: _318  and  _320
REMARK  136  A    between atoms: _320  and  _321
REMARK  137  A    between atoms: _320  and  _323
REMARK  138  A    between atoms: _323  and  _324
REMARK  139  A    between atoms: _324  and  _325
REMARK  140  A    between atoms: _325  and  _326
REMARK  141  A    between atoms: _326  and  _327
REMARK  142  A    between atoms: _331  and  _333
REMARK  143  A    between atoms: _333  and  _334
REMARK  144  A    between atoms: _333  and  _336
REMARK  145  A    between atoms: _336  and  _337
REMARK  146  A    between atoms: _337  and  _338
REMARK  147  A    between atoms: _338  and  _339
REMARK  148  A    between atoms: _348  and  _350
REMARK  149  A    between atoms: _350  and  _351
REMARK  150  A    between atoms: _350  and  _353
REMARK  151  A    between atoms: _353  and  _354
REMARK  152  A    between atoms: _357  and  _359
REMARK  153  A    between atoms: _359  and  _360
REMARK  154  A    between atoms: _359  and  _362
REMARK  155  A    between atoms: _362  and  _363
REMARK  156  A    between atoms: _366  and  _368
REMARK  157  A    between atoms: _368  and  _369
REMARK  158  A    between atoms: _368  and  _371
REMARK  159  A    between atoms: _371  and  _372
REMARK  160  A    between atoms: _374  and  _376
REMARK  161  A    between atoms: _376  and  _377
REMARK  162  A    between atoms: _376  and  _379
REMARK  163  A    between atoms: _379  and  _380
REMARK  164  A    between atoms: _382  and  _384
REMARK  165  A    between atoms: _384  and  _385
REMARK  166  A    between atoms: _384  and  _387
REMARK  167  A    between atoms: _387  and  _388
REMARK  168  A    between atoms: _394  and  _396
REMARK  169  A    between atoms: _396  and  _397
REMARK  170  A    between atoms: _396  and  _399
REMARK  171  A    between atoms: _402  and  _404
REMARK  172  A    between atoms: _404  and  _405
REMARK  173  A    between atoms: _407  and  _409
REMARK  174  A    between atoms: _409  and  _410
REMARK  175  A    between atoms: _412  and  _414
REMARK  176  A    between atoms: _414  and  _415
REMARK  177  A    between atoms: _414  and  _417
REMARK  178  A    between atoms: _417  and  _418
REMARK  179  A    between atoms: _420  and  _422
REMARK  180  A    between atoms: _422  and  _423
REMARK  181  A    between atoms: _422  and  _425
REMARK  182  A    between atoms: _425  and  _426
REMARK  183  A    between atoms: _429  and  _431
REMARK  184  A    between atoms: _431  and  _432
REMARK  185  A    between atoms: _431  and  _434
REMARK  186  A    between atoms: _434  and  _435
REMARK  187  A    between atoms: _435  and  _436
REMARK  188  A    between atoms: _436  and  _437
REMARK  189  A    between atoms: _446  and  _448
REMARK  190  A    between atoms: _448  and  _449
REMARK  191  A    between atoms: _448  and  _451
REMARK  192  A    between atoms: _451  and  _452
REMARK  193  A    between atoms: _456  and  _457
REMARK  194  A    between atoms: _462  and  _464
REMARK  195  A    between atoms: _464  and  _465
REMARK  196  A    between atoms: _464  and  _467
REMARK  197  A    between atoms: _467  and  _468
REMARK  198  A    between atoms: _471  and  _473
REMARK  199  A    between atoms: _473  and  _474
REMARK  200  A    between atoms: _473  and  _476
REMARK  201  A    between atoms: _476  and  _477
REMARK  202  A    between atoms: _483  and  _484
REMARK  203  A    between atoms: _489  and  _491
REMARK  204  A    between atoms: _491  and  _492
REMARK  205  A    between atoms: _491  and  _494
REMARK  206  A    between atoms: _494  and  _495
REMARK  207  A    between atoms: _498  and  _500
REMARK  208  A    between atoms: _500  and  _501
REMARK  209  A    between atoms: _500  and  _503
REMARK  210  A    between atoms: _503  and  _504
REMARK  211  A    between atoms: _504  and  _505
REMARK  212  A    between atoms: _508  and  _510
REMARK  213  A    between atoms: _510  and  _511
REMARK  214  A    between atoms: _514  and  _516
REMARK  215  A    between atoms: _516  and  _517
REMARK  216  A    between atoms: _516  and  _519
REMARK                            x       y       z     vdW  Elec       q    Type
REMARK                         _______ _______ _______ _____ _____    ______ ____
ROOT
ATOM      1  O   HOH     1      20.099  27.017  19.980  0.00  0.00    +0.000 OA
ENDROOT
TORSDOF 0
REMARK  Name = ../refined-set-2016/1atr/1atr_pocket.pdb
REMARK  216 active torsions:
REMARK  status: ('A' for Active; 'I' for Inactive)
REMARK    1  A    between atoms: _1  and  _3
REMARK    2  A    between atoms: _3  and  _4
REMARK    3  A    between atoms: _3  and  _6
REMARK    4  A    between atoms: _6  and  _7
REMARK    5  A    between atoms: _10  and  _12
REMARK    6  A    between atoms: _12  and  _13
REMARK    7  A    between atoms: _12  and  _15
REMARK    8  A    between atoms: _15  and  _16
REMARK    9  A    between atoms: _19  and  _21
REMARK   10  A    between atoms: _21  and  _22
REMARK   11  A    between atoms: _24  and  _26
REMARK   12  A    between atoms: _26  and  _27
REMARK   13  A    between atoms: _26  and  _29
REMARK   14  A    between atoms: _29  and  _30
REMARK   15  A    between atoms: _33  and  _35
REMARK   16  A    between atoms: _35  and  _36
REMARK   17  A    between atoms: _35  and  _38
REMARK   18  A    between atoms: _38  and  _39
REMARK   19  A    between atoms: _42  and  _44
REMARK   20  A    between atoms: _44  and  _45
REMARK   21  A    between atoms: _44  and  _47
REMARK   22  A    between atoms: _47  and  _48
REMARK   23  A    between atoms: _53  and  _54
REMARK   24  A    between atoms: _56  and  _58
REMARK   25  A    between atoms: _58  and  _59
REMARK   26  A    between atoms: _58  and  _61
REMARK   27  A    between atoms: _61  and  _62
REMARK   28  A    between atoms: _64  and  _66
REMARK   29  A    between atoms: _66  and  _67
REMARK   30  A    between atoms: _66  and  _69
REMARK   31  A    between atoms: _71  and  _73
REMARK   32  A    between atoms: _73  and  _74
REMARK   33  A    between atoms: _73  and  _76
REMARK   34  A    between atoms: _76  and  _77
REMARK   35  A    between atoms: _80  and  _82
REMARK   36  A    between atoms: _82  and  _83
REMARK   37  A    between atoms: _82  and  _85
REMARK   38  A    between atoms: _85  and  _86
REMARK   39  A    between atoms: _90  and  _91
REMARK   40  A    between atoms: _96  and  _98
REMARK   41  A    between atoms: _98  and  _99
REMARK   42  A    between atoms: _98  and  _101
REMARK   43  A    between atoms: _101  and  _102
REMARK   44  A    between atoms: _104  and  _106
REMARK   45  A    between atoms: _106  and  _107
REMARK   46  A    between atoms: _106  and  _109
REMARK   47  A    between atoms: _109  and  _110
REMARK   48  A    between atoms: _110  and  _111
REMARK   49  A    between atoms: _111  and  _112
REMARK   50  A    between atoms: _112  and  _113
REMARK   51  A    between atoms: _117  and  _119
REMARK   52  A    between atoms: _119  and  _120
REMARK   53  A    between atoms: _119  and  _122
REMARK   54  A    between atoms: _122  and  _123
REMARK   55  A    between atoms: _126  and  _128
REMARK   56  A    between atoms: _128  and  _129
REMARK   57  A    between atoms: _128  and  _131
REMARK   58  A    between atoms: _131  and  _132
REMARK   59  A    between atoms: _132  and  _133
REMARK   60  A    between atoms: _133  and  _134
REMARK   61  A    between atoms: _134  and  _135
REMARK   62  A    between atoms: _139  and  _141
REMARK   63  A    between atoms: _141  and  _142
REMARK   64  A    between atoms: _141  and  _144
REMARK   65  A    between atoms: _144  and  _145
REMARK   66  A    between atoms: _145  and  _146
REMARK   67  A    between atoms: _146  and  _147
REMARK   68  A    between atoms: _156  and  _158
REMARK   69  A    between atoms: _158  and  _159
REMARK   70  A    between atoms: _158  and  _161
REMARK   71  A    between atoms: _161  and  _162
REMARK   72  A    between atoms: _162  and  _163
REMARK   73  A    between atoms: _166  and  _168
REMARK   74  A    between atoms: _168  and  _169
REMARK   75  A    between atoms: _168  and  _171
REMARK   76  A    between atoms: _171  and  _172
REMARK   77  A    between atoms: _175  and  _177
REMARK   78  A    between atoms: _177  and  _178
REMARK   79  A    between atoms: _177  and  _180
REMARK   80  A    between atoms: _180  and  _181
REMARK   81  A    between atoms: _184  and  _186
REMARK   82  A    between atoms: _186  and  _187
REMARK   83  A    between atoms: _189  and  _191
REMARK   84  A    between atoms: _191  and  _192
REMARK   85  A    between atoms: _194  and  _196
REMARK   86  A    between atoms: _196  and  _197
REMARK   87  A    between atoms: _199  and  _201
REMARK   88  A    between atoms: _201  and  _202
REMARK   89  A    between atoms: _201  and  _204
REMARK   90  A    between atoms: _207  and  _209
REMARK   91  A    between atoms: _209  and  _210
REMARK   92  A    between atoms: _209  and  _212
REMARK   93  A    between atoms: _212  and  _213
REMARK   94  A    between atoms: _219  and  _221
REMARK   95  A    between atoms: _221  and  _222
REMARK   96  A    between atoms: _221  and  _224
REMARK   97  A    between atoms: _224  and  _225
REMARK   98  A    between atoms: _228  and  _230
REMARK   99  A    between atoms: _230  and  _231
REMARK  100  A    between atoms: _233  and  _235
REMARK  101  A    between atoms: _235  and  _236
REMARK  102  A    between atoms: _238  and  _240
REMARK  103  A    between atoms: _240  and  _241
REMARK  104  A    between atoms: _240  and  _243
REMARK  105  A    between atoms: _243  and  _244
REMARK  106  A    between atoms: _244  and  _245
REMARK  107  A    between atoms: _248  and  _250
REMARK  108  A    between atoms: _250  and  _251
REMARK  109  A    between atoms: _250  and  _253
REMARK  110  A    between atoms: _253  and  _254
REMARK  111  A    between atoms: _257  and  _259
REMARK  112  A    between atoms: _259  and  _260
REMARK  113  A    between atoms: _259  and  _262
REMARK  114  A    between atoms: _262  and  _263
REMARK  115  A    between atoms: _269  and  _271
REMARK  116  A    between atoms: _271  and  _272
REMARK  117  A    between atoms: _271  and  _274
REMARK  118  A    between atoms: _274  and  _275
REMARK  119  A    between atoms: _278  and  _280
REMARK  120  A    between atoms: _280  and  _281
REMARK  121  A    between atoms: _280  and  _283
REMARK  122  A    between atoms: _285  and  _287
REMARK  123  A    between atoms: _287  and  _288
REMARK  124  A    between atoms: _287  and  _290
REMARK  125  A    between atoms: _290  and  _291
REMARK  126  A    between atoms: _291  and  _292
REMARK  127  A    between atoms: _295  and  _297
REMARK  128  A    between atoms: _297  and  _298
REMARK  129  A    between atoms: _297  and  _300
REMARK  130  A    between atoms: _300  and  _301
REMARK  131  A    between atoms: _301  and  _302
REMARK  132  A    between atoms: _302  and  _303
REMARK  133  A    between atoms: _312  and  _314
REMARK  134  A    between atoms: _314  and  _315
REMARK  135  A    between atoms: _318  and  _320
REMARK  136  A    between atoms: _320  and  _321
REMARK  137  A    between atoms: _320  and  _323
REMARK  138  A    between atoms: _323  and  _324
REMARK  139  A    between atoms: _324  and  _325
REMARK  140  A    between atoms: _325  and  _326
REMARK  141  A    between atoms: _326  and  _327
REMARK  142  A    between atoms: _331  and  _333
REMARK  143  A    between atoms: _333  and  _334
REMARK  144  A    between atoms: _333  and  _336
REMARK  145  A    between atoms: _336  and  _337
REMARK  146  A    between atoms: _337  and  _338
REMARK  147  A    between atoms: _338  and  _339
REMARK  148  A    between atoms: _348  and  _350
REMARK  149  A    between atoms: _350  and  _351
REMARK  150  A    between atoms: _350  and  _353
REMARK  151  A    between atoms: _353  and  _354
REMARK  152  A    between atoms: _357  and  _359
REMARK  153  A    between atoms: _359  and  _360
REMARK  154  A    between atoms: _359  and  _362
REMARK  155  A    between atoms: _362  and  _363
REMARK  156  A    between atoms: _366  and  _368
REMARK  157  A    between atoms: _368  and  _369
REMARK  158  A    between atoms: _368  and  _371
REMARK  159  A    between atoms: _371  and  _372
REMARK  160  A    between atoms: _374  and  _376
REMARK  161  A    between atoms: _376  and  _377
REMARK  162  A    between atoms: _376  and  _379
REMARK  163  A    between atoms: _379  and  _380
REMARK  164  A    between atoms: _382  and  _384
REMARK  165  A    between atoms: _384  and  _385
REMARK  166  A    between atoms: _384  and  _387
REMARK  167  A    between atoms: _387  and  _388
REMARK  168  A    between atoms: _394  and  _396
REMARK  169  A    between atoms: _396  and  _397
REMARK  170  A    between atoms: _396  and  _399
REMARK  171  A    between atoms: _402  and  _404
REMARK  172  A    between atoms: _404  and  _405
REMARK  173  A    between atoms: _407  and  _409
REMARK  174  A    between atoms: _409  and  _410
REMARK  175  A    between atoms: _412  and  _414
REMARK  176  A    between atoms: _414  and  _415
REMARK  177  A    between atoms: _414  and  _417
REMARK  178  A    between atoms: _417  and  _418
REMARK  179  A    between atoms: _420  and  _422
REMARK  180  A    between atoms: _422  and  _423
REMARK  181  A    between atoms: _422  and  _425
REMARK  182  A    between atoms: _425  and  _426
REMARK  183  A    between atoms: _429  and  _431
REMARK  184  A    between atoms: _431  and  _432
REMARK  185  A    between atoms: _431  and  _434
REMARK  186  A    between atoms: _434  and  _435
REMARK  187  A    between atoms: _435  and  _436
REMARK  188  A    between atoms: _436  and  _437
REMARK  189  A    between atoms: _446  and  _448
REMARK  190  A    between atoms: _448  and  _449
REMARK  191  A    between atoms: _448  and  _451
REMARK  192  A    between atoms: _451  and  _452
REMARK  193  A    between atoms: _456  and  _457
REMARK  194  A    between atoms: _462  and  _464
REMARK  195  A    between atoms: _464  and  _465
REMARK  196  A    between atoms: _464  and  _467
REMARK  197  A    between atoms: _467  and  _468
REMARK  198  A    between atoms: _471  and  _473
REMARK  199  A    between atoms: _473  and  _474
REMARK  200  A    between atoms: _473  and  _476
REMARK  201  A    between atoms: _476  and  _477
REMARK  202  A    between atoms: _483  and  _484
REMARK  203  A    between atoms: _489  and  _491
REMARK  204  A    between atoms: _491  and  _492
REMARK  205  A    between atoms: _491  and  _494
REMARK  206  A    between atoms: _494  and  _495
REMARK  207  A    between atoms: _498  and  _500
REMARK  208  A    between atoms: _500  and  _501
REMARK  209  A    between atoms: _500  and  _503
REMARK  210  A    between atoms: _503  and  _504
REMARK  211  A    between atoms: _504  and  _505
REMARK  212  A    between atoms: _508  and  _510
REMARK  213  A    between atoms: _510  and  _511
REMARK  214  A    between atoms: _514  and  _516
REMARK  215  A    between atoms: _516  and  _517
REMARK  216  A    between atoms: _516  and  _519
REMARK                            x       y       z     vdW  Elec       q    Type
REMARK                         _______ _______ _______ _____ _____    ______ ____
ROOT
ATOM      1  O   HOH     1      17.206  28.856  20.279  0.00  0.00    +0.000 OA
ENDROOT
TORSDOF 0
