REMARK  Name = ../refined-set-2016/1szd/1szd_pocket.pdb
REMARK  199 active torsions:
REMARK  status: ('A' for Active; 'I' for Inactive)
REMARK    1  A    between atoms: _1  and  _3
REMARK    2  A    between atoms: _3  and  _4
REMARK    3  A    between atoms: _3  and  _6
REMARK    4  A    between atoms: _9  and  _11
REMARK    5  A    between atoms: _11  and  _12
REMARK    6  A    between atoms: _11  and  _14
REMARK    7  A    between atoms: _17  and  _19
REMARK    8  A    between atoms: _19  and  _20
REMARK    9  A    between atoms: _22  and  _24
REMARK   10  A    between atoms: _24  and  _25
REMARK   11  A    between atoms: _28  and  _30
REMARK   12  A    between atoms: _30  and  _31
REMARK   13  A    between atoms: _33  and  _35
REMARK   14  A    between atoms: _35  and  _36
REMARK   15  A    between atoms: _35  and  _38
REMARK   16  A    between atoms: _38  and  _39
REMARK   17  A    between atoms: _42  and  _44
REMARK   18  A    between atoms: _44  and  _45
REMARK   19  A    between atoms: _44  and  _47
REMARK   20  A    between atoms: _47  and  _48
REMARK   21  A    between atoms: _50  and  _52
REMARK   22  A    between atoms: _52  and  _53
REMARK   23  A    between atoms: _52  and  _55
REMARK   24  A    between atoms: _55  and  _56
REMARK   25  A    between atoms: _59  and  _61
REMARK   26  A    between atoms: _61  and  _62
REMARK   27  A    between atoms: _61  and  _64
REMARK   28  A    between atoms: _64  and  _65
REMARK   29  A    between atoms: _67  and  _69
REMARK   30  A    between atoms: _69  and  _70
REMARK   31  A    between atoms: _69  and  _72
REMARK   32  A    between atoms: _74  and  _76
REMARK   33  A    between atoms: _76  and  _77
REMARK   34  A    between atoms: _76  and  _79
REMARK   35  A    between atoms: _79  and  _80
REMARK   36  A    between atoms: _83  and  _85
REMARK   37  A    between atoms: _85  and  _86
REMARK   38  A    between atoms: _85  and  _88
REMARK   39  A    between atoms: _88  and  _89
REMARK   40  A    between atoms: _95  and  _97
REMARK   41  A    between atoms: _97  and  _98
REMARK   42  A    between atoms: _97  and  _100
REMARK   43  A    between atoms: _100  and  _101
REMARK   44  A    between atoms: _101  and  _102
REMARK   45  A    between atoms: _102  and  _103
REMARK   46  A    between atoms: _113  and  _114
REMARK   47  A    between atoms: _119  and  _121
REMARK   48  A    between atoms: _121  and  _122
REMARK   49  A    between atoms: _121  and  _124
REMARK   50  A    between atoms: _124  and  _125
REMARK   51  A    between atoms: _125  and  _126
REMARK   52  A    between atoms: _129  and  _131
REMARK   53  A    between atoms: _131  and  _132
REMARK   54  A    between atoms: _135  and  _137
REMARK   55  A    between atoms: _137  and  _138
REMARK   56  A    between atoms: _137  and  _140
REMARK   57  A    between atoms: _143  and  _145
REMARK   58  A    between atoms: _145  and  _146
REMARK   59  A    between atoms: _145  and  _148
REMARK   60  A    between atoms: _148  and  _149
REMARK   61  A    between atoms: _155  and  _157
REMARK   62  A    between atoms: _157  and  _158
REMARK   63  A    between atoms: _157  and  _160
REMARK   64  A    between atoms: _160  and  _161
REMARK   65  A    between atoms: _164  and  _166
REMARK   66  A    between atoms: _166  and  _167
REMARK   67  A    between atoms: _166  and  _169
REMARK   68  A    between atoms: _169  and  _170
REMARK   69  A    between atoms: _176  and  _178
REMARK   70  A    between atoms: _178  and  _179
REMARK   71  A    between atoms: _178  and  _181
REMARK   72  A    between atoms: _181  and  _182
REMARK   73  A    between atoms: _185  and  _187
REMARK   74  A    between atoms: _187  and  _188
REMARK   75  A    between atoms: _187  and  _190
REMARK   76  A    between atoms: _190  and  _191
REMARK   77  A    between atoms: _191  and  _192
REMARK   78  A    between atoms: _197  and  _199
REMARK   79  A    between atoms: _199  and  _200
REMARK   80  A    between atoms: _199  and  _202
REMARK   81  A    between atoms: _202  and  _203
REMARK   82  A    between atoms: _208  and  _210
REMARK   83  A    between atoms: _210  and  _211
REMARK   84  A    between atoms: _210  and  _213
REMARK   85  A    between atoms: _213  and  _214
REMARK   86  A    between atoms: _217  and  _219
REMARK   87  A    between atoms: _219  and  _220
REMARK   88  A    between atoms: _219  and  _222
REMARK   89  A    between atoms: _222  and  _223
REMARK   90  A    between atoms: _228  and  _230
REMARK   91  A    between atoms: _230  and  _231
REMARK   92  A    between atoms: _230  and  _233
REMARK   93  A    between atoms: _233  and  _234
REMARK   94  A    between atoms: _237  and  _239
REMARK   95  A    between atoms: _239  and  _240
REMARK   96  A    between atoms: _239  and  _242
REMARK   97  A    between atoms: _245  and  _247
REMARK   98  A    between atoms: _247  and  _248
REMARK   99  A    between atoms: _247  and  _250
REMARK  100  A    between atoms: _250  and  _251
REMARK  101  A    between atoms: _257  and  _259
REMARK  102  A    between atoms: _259  and  _260
REMARK  103  A    between atoms: _259  and  _262
REMARK  104  A    between atoms: _265  and  _267
REMARK  105  A    between atoms: _267  and  _268
REMARK  106  A    between atoms: _267  and  _270
REMARK  107  A    between atoms: _273  and  _275
REMARK  108  A    between atoms: _275  and  _276
REMARK  109  A    between atoms: _278  and  _280
REMARK  110  A    between atoms: _280  and  _281
REMARK  111  A    between atoms: _280  and  _283
REMARK  112  A    between atoms: _283  and  _284
REMARK  113  A    between atoms: _287  and  _289
REMARK  114  A    between atoms: _289  and  _290
REMARK  115  A    between atoms: _289  and  _292
REMARK  116  A    between atoms: _292  and  _293
REMARK  117  A    between atoms: _295  and  _297
REMARK  118  A    between atoms: _297  and  _298
REMARK  119  A    between atoms: _297  and  _300
REMARK  120  A    between atoms: _300  and  _301
REMARK  121  A    between atoms: _304  and  _306
REMARK  122  A    between atoms: _306  and  _307
REMARK  123  A    between atoms: _310  and  _312
REMARK  124  A    between atoms: _312  and  _313
REMARK  125  A    between atoms: _312  and  _315
REMARK  126  A    between atoms: _318  and  _320
REMARK  127  A    between atoms: _320  and  _321
REMARK  128  A    between atoms: _320  and  _323
REMARK  129  A    between atoms: _323  and  _324
REMARK  130  A    between atoms: _329  and  _330
REMARK  131  A    between atoms: _332  and  _334
REMARK  132  A    between atoms: _334  and  _335
REMARK  133  A    between atoms: _334  and  _337
REMARK  134  A    between atoms: _337  and  _338
REMARK  135  A    between atoms: _344  and  _346
REMARK  136  A    between atoms: _346  and  _347
REMARK  137  A    between atoms: _346  and  _349
REMARK  138  A    between atoms: _349  and  _350
REMARK  139  A    between atoms: _353  and  _355
REMARK  140  A    between atoms: _355  and  _356
REMARK  141  A    between atoms: _355  and  _358
REMARK  142  A    between atoms: _360  and  _362
REMARK  143  A    between atoms: _362  and  _363
REMARK  144  A    between atoms: _362  and  _365
REMARK  145  A    between atoms: _365  and  _366
REMARK  146  A    between atoms: _371  and  _373
REMARK  147  A    between atoms: _373  and  _374
REMARK  148  A    between atoms: _373  and  _376
REMARK  149  A    between atoms: _376  and  _377
REMARK  150  A    between atoms: _380  and  _382
REMARK  151  A    between atoms: _382  and  _383
REMARK  152  A    between atoms: _382  and  _385
REMARK  153  A    between atoms: _385  and  _386
REMARK  154  A    between atoms: _386  and  _387
REMARK  155  A    between atoms: _390  and  _392
REMARK  156  A    between atoms: _392  and  _393
REMARK  157  A    between atoms: _392  and  _395
REMARK  158  A    between atoms: _395  and  _396
REMARK  159  A    between atoms: _399  and  _401
REMARK  160  A    between atoms: _401  and  _402
REMARK  161  A    between atoms: _401  and  _404
REMARK  162  A    between atoms: _407  and  _409
REMARK  163  A    between atoms: _409  and  _410
REMARK  164  A    between atoms: _412  and  _414
REMARK  165  A    between atoms: _414  and  _415
REMARK  166  A    between atoms: _414  and  _417
REMARK  167  A    between atoms: _420  and  _422
REMARK  168  A    between atoms: _422  and  _423
REMARK  169  A    between atoms: _422  and  _425
REMARK  170  A    between atoms: _425  and  _426
REMARK  171  A    between atoms: _431  and  _433
REMARK  172  A    between atoms: _433  and  _434
REMARK  173  A    between atoms: _433  and  _436
REMARK  174  A    between atoms: _436  and  _437
REMARK  175  A    between atoms: _437  and  _438
REMARK  176  A    between atoms: _443  and  _445
REMARK  177  A    between atoms: _445  and  _446
REMARK  178  A    between atoms: _445  and  _448
REMARK  179  A    between atoms: _448  and  _449
REMARK  180  A    between atoms: _454  and  _455
REMARK  181  A    between atoms: _457  and  _459
REMARK  182  A    between atoms: _459  and  _460
REMARK  183  A    between atoms: _459  and  _462
REMARK  184  A    between atoms: _462  and  _463
REMARK  185  A    between atoms: _465  and  _467
REMARK  186  A    between atoms: _467  and  _468
REMARK  187  A    between atoms: _467  and  _470
REMARK  188  A    between atoms: _470  and  _471
REMARK  189  A    between atoms: _474  and  _476
REMARK  190  A    between atoms: _476  and  _477
REMARK  191  A    between atoms: _476  and  _479
REMARK  192  A    between atoms: _479  and  _480
REMARK  193  A    between atoms: _480  and  _481
REMARK  194  A    between atoms: _484  and  _486
REMARK  195  A    between atoms: _486  and  _487
REMARK  196  A    between atoms: _486  and  _489
REMARK  197  A    between atoms: _489  and  _490
REMARK  198  A    between atoms: _496  and  _498
REMARK  199  A    between atoms: _498  and  _499
REMARK                            x       y       z     vdW  Elec       q    Type
REMARK                         _______ _______ _______ _____ _____    ______ ____
ROOT
ATOM      1  CA  VAL A   1     -19.857  27.509 -31.274  0.00  0.00    +0.133 C 
ENDROOT
BRANCH   1   2
ATOM      2  CB  VAL A   1     -18.530  27.171 -32.002  0.00  0.00    +0.023 C 
ATOM      3  CG2 VAL A   1     -17.785  26.082 -31.263  0.00  0.00    +0.002 C 
ATOM      4  CG1 VAL A   1     -18.815  26.765 -33.442  0.00  0.00    +0.002 C 
ENDBRANCH   1   2
BRANCH   1   5
ATOM      5  N   VAL A   1     -19.599  28.034 -29.942  0.00  0.00    -0.239 NA
ATOM      6  H   VAL A   1     -18.640  27.979 -29.542  0.00  0.00    +0.142 HD
ENDBRANCH   1   5
BRANCH   1   7
ATOM      7  C   VAL A   1     -20.789  26.292 -31.255  0.00  0.00    +0.224 C 
ATOM      8  O   VAL A   1     -21.569  26.083 -32.187  0.00  0.00    -0.287 OA
ENDBRANCH   1   7
TORSDOF 3
REMARK  Name = ../refined-set-2016/1szd/1szd_pocket.pdb
REMARK  199 active torsions:
REMARK  status: ('A' for Active; 'I' for Inactive)
REMARK    1  A    between atoms: _1  and  _3
REMARK    2  A    between atoms: _3  and  _4
REMARK    3  A    between atoms: _3  and  _6
REMARK    4  A    between atoms: _9  and  _11
REMARK    5  A    between atoms: _11  and  _12
REMARK    6  A    between atoms: _11  and  _14
REMARK    7  A    between atoms: _17  and  _19
REMARK    8  A    between atoms: _19  and  _20
REMARK    9  A    between atoms: _22  and  _24
REMARK   10  A    between atoms: _24  and  _25
REMARK   11  A    between atoms: _28  and  _30
REMARK   12  A    between atoms: _30  and  _31
REMARK   13  A    between atoms: _33  and  _35
REMARK   14  A    between atoms: _35  and  _36
REMARK   15  A    between atoms: _35  and  _38
REMARK   16  A    between atoms: _38  and  _39
REMARK   17  A    between atoms: _42  and  _44
REMARK   18  A    between atoms: _44  and  _45
REMARK   19  A    between atoms: _44  and  _47
REMARK   20  A    between atoms: _47  and  _48
REMARK   21  A    between atoms: _50  and  _52
REMARK   22  A    between atoms: _52  and  _53
REMARK   23  A    between atoms: _52  and  _55
REMARK   24  A    between atoms: _55  and  _56
REMARK   25  A    between atoms: _59  and  _61
REMARK   26  A    between atoms: _61  and  _62
REMARK   27  A    between atoms: _61  and  _64
REMARK   28  A    between atoms: _64  and  _65
REMARK   29  A    between atoms: _67  and  _69
REMARK   30  A    between atoms: _69  and  _70
REMARK   31  A    between atoms: _69  and  _72
REMARK   32  A    between atoms: _74  and  _76
REMARK   33  A    between atoms: _76  and  _77
REMARK   34  A    between atoms: _76  and  _79
REMARK   35  A    between atoms: _79  and  _80
REMARK   36  A    between atoms: _83  and  _85
REMARK   37  A    between atoms: _85  and  _86
REMARK   38  A    between atoms: _85  and  _88
REMARK   39  A    between atoms: _88  and  _89
REMARK   40  A    between atoms: _95  and  _97
REMARK   41  A    between atoms: _97  and  _98
REMARK   42  A    between atoms: _97  and  _100
REMARK   43  A    between atoms: _100  and  _101
REMARK   44  A    between atoms: _101  and  _102
REMARK   45  A    between atoms: _102  and  _103
REMARK   46  A    between atoms: _113  and  _114
REMARK   47  A    between atoms: _119  and  _121
REMARK   48  A    between atoms: _121  and  _122
REMARK   49  A    between atoms: _121  and  _124
REMARK   50  A    between atoms: _124  and  _125
REMARK   51  A    between atoms: _125  and  _126
REMARK   52  A    between atoms: _129  and  _131
REMARK   53  A    between atoms: _131  and  _132
REMARK   54  A    between atoms: _135  and  _137
REMARK   55  A    between atoms: _137  and  _138
REMARK   56  A    between atoms: _137  and  _140
REMARK   57  A    between atoms: _143  and  _145
REMARK   58  A    between atoms: _145  and  _146
REMARK   59  A    between atoms: _145  and  _148
REMARK   60  A    between atoms: _148  and  _149
REMARK   61  A    between atoms: _155  and  _157
REMARK   62  A    between atoms: _157  and  _158
REMARK   63  A    between atoms: _157  and  _160
REMARK   64  A    between atoms: _160  and  _161
REMARK   65  A    between atoms: _164  and  _166
REMARK   66  A    between atoms: _166  and  _167
REMARK   67  A    between atoms: _166  and  _169
REMARK   68  A    between atoms: _169  and  _170
REMARK   69  A    between atoms: _176  and  _178
REMARK   70  A    between atoms: _178  and  _179
REMARK   71  A    between atoms: _178  and  _181
REMARK   72  A    between atoms: _181  and  _182
REMARK   73  A    between atoms: _185  and  _187
REMARK   74  A    between atoms: _187  and  _188
REMARK   75  A    between atoms: _187  and  _190
REMARK   76  A    between atoms: _190  and  _191
REMARK   77  A    between atoms: _191  and  _192
REMARK   78  A    between atoms: _197  and  _199
REMARK   79  A    between atoms: _199  and  _200
REMARK   80  A    between atoms: _199  and  _202
REMARK   81  A    between atoms: _202  and  _203
REMARK   82  A    between atoms: _208  and  _210
REMARK   83  A    between atoms: _210  and  _211
REMARK   84  A    between atoms: _210  and  _213
REMARK   85  A    between atoms: _213  and  _214
REMARK   86  A    between atoms: _217  and  _219
REMARK   87  A    between atoms: _219  and  _220
REMARK   88  A    between atoms: _219  and  _222
REMARK   89  A    between atoms: _222  and  _223
REMARK   90  A    between atoms: _228  and  _230
REMARK   91  A    between atoms: _230  and  _231
REMARK   92  A    between atoms: _230  and  _233
REMARK   93  A    between atoms: _233  and  _234
REMARK   94  A    between atoms: _237  and  _239
REMARK   95  A    between atoms: _239  and  _240
REMARK   96  A    between atoms: _239  and  _242
REMARK   97  A    between atoms: _245  and  _247
REMARK   98  A    between atoms: _247  and  _248
REMARK   99  A    between atoms: _247  and  _250
REMARK  100  A    between atoms: _250  and  _251
REMARK  101  A    between atoms: _257  and  _259
REMARK  102  A    between atoms: _259  and  _260
REMARK  103  A    between atoms: _259  and  _262
REMARK  104  A    between atoms: _265  and  _267
REMARK  105  A    between atoms: _267  and  _268
REMARK  106  A    between atoms: _267  and  _270
REMARK  107  A    between atoms: _273  and  _275
REMARK  108  A    between atoms: _275  and  _276
REMARK  109  A    between atoms: _278  and  _280
REMARK  110  A    between atoms: _280  and  _281
REMARK  111  A    between atoms: _280  and  _283
REMARK  112  A    between atoms: _283  and  _284
REMARK  113  A    between atoms: _287  and  _289
REMARK  114  A    between atoms: _289  and  _290
REMARK  115  A    between atoms: _289  and  _292
REMARK  116  A    between atoms: _292  and  _293
REMARK  117  A    between atoms: _295  and  _297
REMARK  118  A    between atoms: _297  and  _298
REMARK  119  A    between atoms: _297  and  _300
REMARK  120  A    between atoms: _300  and  _301
REMARK  121  A    between atoms: _304  and  _306
REMARK  122  A    between atoms: _306  and  _307
REMARK  123  A    between atoms: _310  and  _312
REMARK  124  A    between atoms: _312  and  _313
REMARK  125  A    between atoms: _312  and  _315
REMARK  126  A    between atoms: _318  and  _320
REMARK  127  A    between atoms: _320  and  _321
REMARK  128  A    between atoms: _320  and  _323
REMARK  129  A    between atoms: _323  and  _324
REMARK  130  A    between atoms: _329  and  _330
REMARK  131  A    between atoms: _332  and  _334
REMARK  132  A    between atoms: _334  and  _335
REMARK  133  A    between atoms: _334  and  _337
REMARK  134  A    between atoms: _337  and  _338
REMARK  135  A    between atoms: _344  and  _346
REMARK  136  A    between atoms: _346  and  _347
REMARK  137  A    between atoms: _346  and  _349
REMARK  138  A    between atoms: _349  and  _350
REMARK  139  A    between atoms: _353  and  _355
REMARK  140  A    between atoms: _355  and  _356
REMARK  141  A    between atoms: _355  and  _358
REMARK  142  A    between atoms: _360  and  _362
REMARK  143  A    between atoms: _362  and  _363
REMARK  144  A    between atoms: _362  and  _365
REMARK  145  A    between atoms: _365  and  _366
REMARK  146  A    between atoms: _371  and  _373
REMARK  147  A    between atoms: _373  and  _374
REMARK  148  A    between atoms: _373  and  _376
REMARK  149  A    between atoms: _376  and  _377
REMARK  150  A    between atoms: _380  and  _382
REMARK  151  A    between atoms: _382  and  _383
REMARK  152  A    between atoms: _382  and  _385
REMARK  153  A    between atoms: _385  and  _386
REMARK  154  A    between atoms: _386  and  _387
REMARK  155  A    between atoms: _390  and  _392
REMARK  156  A    between atoms: _392  and  _393
REMARK  157  A    between atoms: _392  and  _395
REMARK  158  A    between atoms: _395  and  _396
REMARK  159  A    between atoms: _399  and  _401
REMARK  160  A    between atoms: _401  and  _402
REMARK  161  A    between atoms: _401  and  _404
REMARK  162  A    between atoms: _407  and  _409
REMARK  163  A    between atoms: _409  and  _410
REMARK  164  A    between atoms: _412  and  _414
REMARK  165  A    between atoms: _414  and  _415
REMARK  166  A    between atoms: _414  and  _417
REMARK  167  A    between atoms: _420  and  _422
REMARK  168  A    between atoms: _422  and  _423
REMARK  169  A    between atoms: _422  and  _425
REMARK  170  A    between atoms: _425  and  _426
REMARK  171  A    between atoms: _431  and  _433
REMARK  172  A    between atoms: _433  and  _434
REMARK  173  A    between atoms: _433  and  _436
REMARK  174  A    between atoms: _436  and  _437
REMARK  175  A    between atoms: _437  and  _438
REMARK  176  A    between atoms: _443  and  _445
REMARK  177  A    between atoms: _445  and  _446
REMARK  178  A    between atoms: _445  and  _448
REMARK  179  A    between atoms: _448  and  _449
REMARK  180  A    between atoms: _454  and  _455
REMARK  181  A    between atoms: _457  and  _459
REMARK  182  A    between atoms: _459  and  _460
REMARK  183  A    between atoms: _459  and  _462
REMARK  184  A    between atoms: _462  and  _463
REMARK  185  A    between atoms: _465  and  _467
REMARK  186  A    between atoms: _467  and  _468
REMARK  187  A    between atoms: _467  and  _470
REMARK  188  A    between atoms: _470  and  _471
REMARK  189  A    between atoms: _474  and  _476
REMARK  190  A    between atoms: _476  and  _477
REMARK  191  A    between atoms: _476  and  _479
REMARK  192  A    between atoms: _479  and  _480
REMARK  193  A    between atoms: _480  and  _481
REMARK  194  A    between atoms: _484  and  _486
REMARK  195  A    between atoms: _486  and  _487
REMARK  196  A    between atoms: _486  and  _489
REMARK  197  A    between atoms: _489  and  _490
REMARK  198  A    between atoms: _496  and  _498
REMARK  199  A    between atoms: _498  and  _499
REMARK                            x       y       z     vdW  Elec       q    Type
REMARK                         _______ _______ _______ _____ _____    ______ ____
ROOT
ATOM      1  C   ILE A   5     -11.320  38.830 -35.681  0.00  0.00    +0.241 C 
ATOM      2  O   ILE A   5     -11.661  39.586 -34.771  0.00  0.00    -0.273 OA
ATOM      3  N   SER A   6     -11.556  39.102 -36.962  0.00  0.00    -0.295 N 
ATOM      4  H   SER A   6     -11.245  38.433 -37.696  0.00  0.00    +0.150 HD
ENDROOT
BRANCH   3   5
ATOM      5  CA  SER A   6     -12.244  40.325 -37.347  0.00  0.00    +0.178 C 
BRANCH   5   6
ATOM      6  C   SER A   6     -13.633  40.060 -37.924  0.00  0.00    +0.243 C 
ATOM      7  N   THR A   7     -14.029  38.795 -37.989  0.00  0.00    -0.295 N 
ATOM      8  H   THR A   7     -13.411  38.029 -37.654  0.00  0.00    +0.150 HD
ATOM      9  O   SER A   6     -14.349  40.991 -38.296  0.00  0.00    -0.273 OA
BRANCH   7  10
ATOM     10  CA  THR A   7     -15.345  38.500 -38.538  0.00  0.00    +0.176 C 
BRANCH  10  11
ATOM     11  C   THR A   7     -16.460  39.163 -37.726  0.00  0.00    +0.243 C 
ATOM     12  N   SER A   8     -16.353  39.146 -36.400  0.00  0.00    -0.295 N 
ATOM     13  H   SER A   8     -15.525  38.698 -35.957  0.00  0.00    +0.150 HD
ATOM     14  O   THR A   7     -17.402  39.713 -38.297  0.00  0.00    -0.273 OA
BRANCH  12  15
ATOM     15  CA  SER A   8     -17.385  39.749 -35.557  0.00  0.00    +0.178 C 
BRANCH  15  16
ATOM     16  C   SER A   8     -17.482  41.264 -35.728  0.00  0.00    +0.243 C 
ATOM     17  O   SER A   8     -18.448  41.885 -35.289  0.00  0.00    -0.273 OA
ATOM     18  N   CYS A   9     -16.482  41.861 -36.368  0.00  0.00    -0.297 N 
ATOM     19  H   CYS A   9     -15.689  41.285 -36.716  0.00  0.00    +0.150 HD
BRANCH  18  20
ATOM     20  CA  CYS A   9     -16.464  43.305 -36.597  0.00  0.00    +0.149 C 
BRANCH  20  21
ATOM     21  CB  CYS A   9     -15.038  43.769 -36.897  0.00  0.00    +0.096 C 
ATOM     22  SG  CYS A   9     -13.849  43.301 -35.618  0.00  0.00    -0.080 S 
ENDBRANCH  20  21
BRANCH  20  23
ATOM     23  C   CYS A   9     -17.378  43.703 -37.752  0.00  0.00    +0.228 C 
ATOM     24  O   CYS A   9     -17.617  44.888 -37.991  0.00  0.00    -0.286 OA
ENDBRANCH  20  23
ENDBRANCH  18  20
ENDBRANCH  15  16
BRANCH  15  25
ATOM     25  CB  SER A   8     -17.137  39.416 -34.083  0.00  0.00    +0.166 C 
BRANCH  25  26
ATOM     26  OG  SER A   8     -15.923  39.987 -33.636  0.00  0.00    -0.380 OA
ATOM     27  H   SER A   8     -15.784  39.759 -32.683  0.00  0.00    +0.211 HD
ENDBRANCH  25  26
ENDBRANCH  15  25
ENDBRANCH  12  15
ENDBRANCH  10  11
BRANCH  10  28
ATOM     28  CB  THR A   7     -15.592  36.971 -38.640  0.00  0.00    +0.137 C 
ATOM     29  CG2 THR A   7     -14.644  36.345 -39.637  0.00  0.00    +0.034 C 
BRANCH  28  30
ATOM     30  OG1 THR A   7     -15.394  36.354 -37.367  0.00  0.00    -0.382 OA
ATOM     31  HG1 THR A   7     -14.465  36.514 -37.065  0.00  0.00    +0.210 HD
ENDBRANCH  28  30
ENDBRANCH  10  28
ENDBRANCH   7  10
ENDBRANCH   5   6
BRANCH   5  32
ATOM     32  CB  SER A   6     -11.396  41.109 -38.351  0.00  0.00    +0.166 C 
BRANCH  32  33
ATOM     33  OG  SER A   6     -10.163  41.479 -37.753  0.00  0.00    -0.380 OA
ATOM     34  H   SER A   6      -9.619  41.986 -38.407  0.00  0.00    +0.211 HD
ENDBRANCH  32  33
ENDBRANCH   5  32
ENDBRANCH   3   5
BRANCH   1  35
ATOM     35  CA  ILE A   5     -10.608  37.516 -35.371  0.00  0.00    +0.149 C 
BRANCH  35  38
ATOM     36  C   GLY A   4     -11.476  35.946 -36.983  0.00  0.00    +0.243 C 
ATOM     37  O   GLY A   4     -12.598  36.045 -36.481  0.00  0.00    -0.273 OA
ATOM     38  N   ILE A   5     -10.436  36.640 -36.525  0.00  0.00    -0.297 N 
ATOM     39  H   ILE A   5      -9.508  36.558 -36.987  0.00  0.00    +0.150 HD
BRANCH  36  40
ATOM     40  CA  GLY A   4     -11.254  35.028 -38.178  0.00  0.00    +0.176 C 
BRANCH  40  42
ATOM     41  C   ALA A   3     -10.333  36.652 -39.708  0.00  0.00    +0.241 C 
ATOM     42  N   GLY A   4     -10.230  35.466 -39.113  0.00  0.00    -0.295 N 
ATOM     43  H   GLY A   4      -9.416  34.852 -39.317  0.00  0.00    +0.150 HD
ATOM     44  O   ALA A   3     -11.285  37.416 -39.518  0.00  0.00    -0.273 OA
BRANCH  41  45
ATOM     45  CA  ALA A   3      -9.225  37.042 -40.669  0.00  0.00    +0.149 C 
ATOM     46  CB  ALA A   3      -9.681  36.816 -42.114  0.00  0.00    +0.031 C 
BRANCH  45  49
ATOM     47  C   GLY A   2      -7.288  36.481 -39.288  0.00  0.00    +0.243 C 
ATOM     48  O   GLY A   2      -7.788  37.000 -38.285  0.00  0.00    -0.273 OA
ATOM     49  N   ALA A   3      -7.921  36.408 -40.456  0.00  0.00    -0.297 N 
ATOM     50  H   ALA A   3      -7.478  35.887 -41.239  0.00  0.00    +0.150 HD
BRANCH  47  51
ATOM     51  CA  GLY A   2      -5.905  35.844 -39.242  0.00  0.00    +0.176 C 
BRANCH  51  53
ATOM     52  C   VAL A   1      -4.163  36.075 -37.551  0.00  0.00    +0.238 C 
ATOM     53  N   GLY A   2      -5.393  35.686 -37.894  0.00  0.00    -0.296 N 
ATOM     54  H   GLY A   2      -6.004  35.256 -37.171  0.00  0.00    +0.150 HD
ATOM     55  O   VAL A   1      -3.360  36.610 -38.324  0.00  0.00    -0.274 OA
BRANCH  52  56
ATOM     56  CA  VAL A   1      -3.813  35.838 -36.093  0.00  0.00    +0.145 C 
BRANCH  56  57
ATOM     57  CB  VAL A   1      -4.453  36.956 -35.254  0.00  0.00    +0.025 C 
ATOM     58  CG2 VAL A   1      -4.218  36.680 -33.772  0.00  0.00    +0.002 C 
ATOM     59  CG1 VAL A   1      -3.857  38.312 -35.631  0.00  0.00    +0.002 C 
ENDBRANCH  56  57
BRANCH  56  60
ATOM     60  N   VAL A   1      -2.403  35.737 -35.760  0.00  0.00    -0.238 NA
ATOM     61  H   VAL A   1      -1.753  36.499 -36.041  0.00  0.00    +0.142 HD
ENDBRANCH  56  60
ENDBRANCH  52  56
ENDBRANCH  51  53
ENDBRANCH  47  51
ENDBRANCH  45  49
ENDBRANCH  41  45
ENDBRANCH  40  42
ENDBRANCH  36  40
ENDBRANCH  35  38
BRANCH  35  62
ATOM     62  CB  ILE A   5      -9.257  37.822 -34.649  0.00  0.00    +0.027 C 
ATOM     63  CG2 ILE A   5      -8.527  36.524 -34.375  0.00  0.00    +0.002 C 
BRANCH  62  64
ATOM     64  CG1 ILE A   5      -8.372  38.756 -35.479  0.00  0.00    +0.002 C 
ATOM     65  CD1 ILE A   5      -7.209  39.347 -34.655  0.00  0.00    +0.000 C 
ENDBRANCH  62  64
ENDBRANCH  35  62
ENDBRANCH   1  35
TORSDOF 28
REMARK  Name = ../refined-set-2016/1szd/1szd_pocket.pdb
REMARK  199 active torsions:
REMARK  status: ('A' for Active; 'I' for Inactive)
REMARK    1  A    between atoms: _1  and  _3
REMARK    2  A    between atoms: _3  and  _4
REMARK    3  A    between atoms: _3  and  _6
REMARK    4  A    between atoms: _9  and  _11
REMARK    5  A    between atoms: _11  and  _12
REMARK    6  A    between atoms: _11  and  _14
REMARK    7  A    between atoms: _17  and  _19
REMARK    8  A    between atoms: _19  and  _20
REMARK    9  A    between atoms: _22  and  _24
REMARK   10  A    between atoms: _24  and  _25
REMARK   11  A    between atoms: _28  and  _30
REMARK   12  A    between atoms: _30  and  _31
REMARK   13  A    between atoms: _33  and  _35
REMARK   14  A    between atoms: _35  and  _36
REMARK   15  A    between atoms: _35  and  _38
REMARK   16  A    between atoms: _38  and  _39
REMARK   17  A    between atoms: _42  and  _44
REMARK   18  A    between atoms: _44  and  _45
REMARK   19  A    between atoms: _44  and  _47
REMARK   20  A    between atoms: _47  and  _48
REMARK   21  A    between atoms: _50  and  _52
REMARK   22  A    between atoms: _52  and  _53
REMARK   23  A    between atoms: _52  and  _55
REMARK   24  A    between atoms: _55  and  _56
REMARK   25  A    between atoms: _59  and  _61
REMARK   26  A    between atoms: _61  and  _62
REMARK   27  A    between atoms: _61  and  _64
REMARK   28  A    between atoms: _64  and  _65
REMARK   29  A    between atoms: _67  and  _69
REMARK   30  A    between atoms: _69  and  _70
REMARK   31  A    between atoms: _69  and  _72
REMARK   32  A    between atoms: _74  and  _76
REMARK   33  A    between atoms: _76  and  _77
REMARK   34  A    between atoms: _76  and  _79
REMARK   35  A    between atoms: _79  and  _80
REMARK   36  A    between atoms: _83  and  _85
REMARK   37  A    between atoms: _85  and  _86
REMARK   38  A    between atoms: _85  and  _88
REMARK   39  A    between atoms: _88  and  _89
REMARK   40  A    between atoms: _95  and  _97
REMARK   41  A    between atoms: _97  and  _98
REMARK   42  A    between atoms: _97  and  _100
REMARK   43  A    between atoms: _100  and  _101
REMARK   44  A    between atoms: _101  and  _102
REMARK   45  A    between atoms: _102  and  _103
REMARK   46  A    between atoms: _113  and  _114
REMARK   47  A    between atoms: _119  and  _121
REMARK   48  A    between atoms: _121  and  _122
REMARK   49  A    between atoms: _121  and  _124
REMARK   50  A    between atoms: _124  and  _125
REMARK   51  A    between atoms: _125  and  _126
REMARK   52  A    between atoms: _129  and  _131
REMARK   53  A    between atoms: _131  and  _132
REMARK   54  A    between atoms: _135  and  _137
REMARK   55  A    between atoms: _137  and  _138
REMARK   56  A    between atoms: _137  and  _140
REMARK   57  A    between atoms: _143  and  _145
REMARK   58  A    between atoms: _145  and  _146
REMARK   59  A    between atoms: _145  and  _148
REMARK   60  A    between atoms: _148  and  _149
REMARK   61  A    between atoms: _155  and  _157
REMARK   62  A    between atoms: _157  and  _158
REMARK   63  A    between atoms: _157  and  _160
REMARK   64  A    between atoms: _160  and  _161
REMARK   65  A    between atoms: _164  and  _166
REMARK   66  A    between atoms: _166  and  _167
REMARK   67  A    between atoms: _166  and  _169
REMARK   68  A    between atoms: _169  and  _170
REMARK   69  A    between atoms: _176  and  _178
REMARK   70  A    between atoms: _178  and  _179
REMARK   71  A    between atoms: _178  and  _181
REMARK   72  A    between atoms: _181  and  _182
REMARK   73  A    between atoms: _185  and  _187
REMARK   74  A    between atoms: _187  and  _188
REMARK   75  A    between atoms: _187  and  _190
REMARK   76  A    between atoms: _190  and  _191
REMARK   77  A    between atoms: _191  and  _192
REMARK   78  A    between atoms: _197  and  _199
REMARK   79  A    between atoms: _199  and  _200
REMARK   80  A    between atoms: _199  and  _202
REMARK   81  A    between atoms: _202  and  _203
REMARK   82  A    between atoms: _208  and  _210
REMARK   83  A    between atoms: _210  and  _211
REMARK   84  A    between atoms: _210  and  _213
REMARK   85  A    between atoms: _213  and  _214
REMARK   86  A    between atoms: _217  and  _219
REMARK   87  A    between atoms: _219  and  _220
REMARK   88  A    between atoms: _219  and  _222
REMARK   89  A    between atoms: _222  and  _223
REMARK   90  A    between atoms: _228  and  _230
REMARK   91  A    between atoms: _230  and  _231
REMARK   92  A    between atoms: _230  and  _233
REMARK   93  A    between atoms: _233  and  _234
REMARK   94  A    between atoms: _237  and  _239
REMARK   95  A    between atoms: _239  and  _240
REMARK   96  A    between atoms: _239  and  _242
REMARK   97  A    between atoms: _245  and  _247
REMARK   98  A    between atoms: _247  and  _248
REMARK   99  A    between atoms: _247  and  _250
REMARK  100  A    between atoms: _250  and  _251
REMARK  101  A    between atoms: _257  and  _259
REMARK  102  A    between atoms: _259  and  _260
REMARK  103  A    between atoms: _259  and  _262
REMARK  104  A    between atoms: _265  and  _267
REMARK  105  A    between atoms: _267  and  _268
REMARK  106  A    between atoms: _267  and  _270
REMARK  107  A    between atoms: _273  and  _275
REMARK  108  A    between atoms: _275  and  _276
REMARK  109  A    between atoms: _278  and  _280
REMARK  110  A    between atoms: _280  and  _281
REMARK  111  A    between atoms: _280  and  _283
REMARK  112  A    between atoms: _283  and  _284
REMARK  113  A    between atoms: _287  and  _289
REMARK  114  A    between atoms: _289  and  _290
REMARK  115  A    between atoms: _289  and  _292
REMARK  116  A    between atoms: _292  and  _293
REMARK  117  A    between atoms: _295  and  _297
REMARK  118  A    between atoms: _297  and  _298
REMARK  119  A    between atoms: _297  and  _300
REMARK  120  A    between atoms: _300  and  _301
REMARK  121  A    between atoms: _304  and  _306
REMARK  122  A    between atoms: _306  and  _307
REMARK  123  A    between atoms: _310  and  _312
REMARK  124  A    between atoms: _312  and  _313
REMARK  125  A    between atoms: _312  and  _315
REMARK  126  A    between atoms: _318  and  _320
REMARK  127  A    between atoms: _320  and  _321
REMARK  128  A    between atoms: _320  and  _323
REMARK  129  A    between atoms: _323  and  _324
REMARK  130  A    between atoms: _329  and  _330
REMARK  131  A    between atoms: _332  and  _334
REMARK  132  A    between atoms: _334  and  _335
REMARK  133  A    between atoms: _334  and  _337
REMARK  134  A    between atoms: _337  and  _338
REMARK  135  A    between atoms: _344  and  _346
REMARK  136  A    between atoms: _346  and  _347
REMARK  137  A    between atoms: _346  and  _349
REMARK  138  A    between atoms: _349  and  _350
REMARK  139  A    between atoms: _353  and  _355
REMARK  140  A    between atoms: _355  and  _356
REMARK  141  A    between atoms: _355  and  _358
REMARK  142  A    between atoms: _360  and  _362
REMARK  143  A    between atoms: _362  and  _363
REMARK  144  A    between atoms: _362  and  _365
REMARK  145  A    between atoms: _365  and  _366
REMARK  146  A    between atoms: _371  and  _373
REMARK  147  A    between atoms: _373  and  _374
REMARK  148  A    between atoms: _373  and  _376
REMARK  149  A    between atoms: _376  and  _377
REMARK  150  A    between atoms: _380  and  _382
REMARK  151  A    between atoms: _382  and  _383
REMARK  152  A    between atoms: _382  and  _385
REMARK  153  A    between atoms: _385  and  _386
REMARK  154  A    between atoms: _386  and  _387
REMARK  155  A    between atoms: _390  and  _392
REMARK  156  A    between atoms: _392  and  _393
REMARK  157  A    between atoms: _392  and  _395
REMARK  158  A    between atoms: _395  and  _396
REMARK  159  A    between atoms: _399  and  _401
REMARK  160  A    between atoms: _401  and  _402
REMARK  161  A    between atoms: _401  and  _404
REMARK  162  A    between atoms: _407  and  _409
REMARK  163  A    between atoms: _409  and  _410
REMARK  164  A    between atoms: _412  and  _414
REMARK  165  A    between atoms: _414  and  _415
REMARK  166  A    between atoms: _414  and  _417
REMARK  167  A    between atoms: _420  and  _422
REMARK  168  A    between atoms: _422  and  _423
REMARK  169  A    between atoms: _422  and  _425
REMARK  170  A    between atoms: _425  and  _426
REMARK  171  A    between atoms: _431  and  _433
REMARK  172  A    between atoms: _433  and  _434
REMARK  173  A    between atoms: _433  and  _436
REMARK  174  A    between atoms: _436  and  _437
REMARK  175  A    between atoms: _437  and  _438
REMARK  176  A    between atoms: _443  and  _445
REMARK  177  A    between atoms: _445  and  _446
REMARK  178  A    between atoms: _445  and  _448
REMARK  179  A    between atoms: _448  and  _449
REMARK  180  A    between atoms: _454  and  _455
REMARK  181  A    between atoms: _457  and  _459
REMARK  182  A    between atoms: _459  and  _460
REMARK  183  A    between atoms: _459  and  _462
REMARK  184  A    between atoms: _462  and  _463
REMARK  185  A    between atoms: _465  and  _467
REMARK  186  A    between atoms: _467  and  _468
REMARK  187  A    between atoms: _467  and  _470
REMARK  188  A    between atoms: _470  and  _471
REMARK  189  A    between atoms: _474  and  _476
REMARK  190  A    between atoms: _476  and  _477
REMARK  191  A    between atoms: _476  and  _479
REMARK  192  A    between atoms: _479  and  _480
REMARK  193  A    between atoms: _480  and  _481
REMARK  194  A    between atoms: _484  and  _486
REMARK  195  A    between atoms: _486  and  _487
REMARK  196  A    between atoms: _486  and  _489
REMARK  197  A    between atoms: _489  and  _490
REMARK  198  A    between atoms: _496  and  _498
REMARK  199  A    between atoms: _498  and  _499
REMARK                            x       y       z     vdW  Elec       q    Type
REMARK                         _______ _______ _______ _____ _____    ______ ____
ROOT
ATOM      1  CA  PHE A   2     -14.679  39.673 -50.496  0.00  0.00    +0.153 C 
ENDROOT
BRANCH   1   4
ATOM      2  C   ASP A   1     -15.681  38.938 -48.396  0.00  0.00    +0.239 C 
ATOM      3  O   ASP A   1     -16.724  38.581 -48.955  0.00  0.00    -0.274 OA
ATOM      4  N   PHE A   2     -14.650  39.459 -49.056  0.00  0.00    -0.297 N 
ATOM      5  H   PHE A   2     -13.795  39.722 -48.526  0.00  0.00    +0.150 HD
BRANCH   2   6
ATOM      6  CA  ASP A   1     -15.511  38.800 -46.880  0.00  0.00    +0.156 C 
BRANCH   6   7
ATOM      7  N   ASP A   1     -16.486  39.678 -46.237  0.00  0.00    -0.238 NA
ATOM      8  H   ASP A   1     -17.372  39.263 -45.884  0.00  0.00    +0.142 HD
ENDBRANCH   6   7
BRANCH   6   9
ATOM      9  CB  ASP A   1     -15.759  37.346 -46.461  0.00  0.00    +0.140 C 
BRANCH   9  10
ATOM     10  CG  ASP A   1     -14.664  36.408 -46.925  0.00  0.00    +0.367 C 
ATOM     11  OD2 ASP A   1     -14.524  35.323 -46.320  0.00  0.00    -0.246 OA
ATOM     12  OD1 ASP A   1     -13.945  36.744 -47.893  0.00  0.00    -0.246 OA
ENDBRANCH   9  10
ENDBRANCH   6   9
ENDBRANCH   2   6
ENDBRANCH   1   4
BRANCH   1  13
ATOM     13  C   PHE A   2     -14.885  38.390 -51.303  0.00  0.00    +0.241 C 
ATOM     14  N   ARG A   3     -14.661  37.245 -50.666  0.00  0.00    -0.298 N 
ATOM     15  H   ARG A   3     -14.359  37.272 -49.671  0.00  0.00    +0.150 HD
ATOM     16  O   PHE A   2     -15.256  38.445 -52.477  0.00  0.00    -0.273 OA
BRANCH  14  17
ATOM     17  CA  ARG A   3     -14.827  35.946 -51.323  0.00  0.00    +0.137 C 
BRANCH  17  18
ATOM     18  C   ARG A   3     -16.211  35.352 -51.093  0.00  0.00    +0.227 C 
ATOM     19  O   ARG A   3     -16.514  34.281 -51.610  0.00  0.00    -0.286 OA
ENDBRANCH  17  18
BRANCH  17  20
ATOM     20  CB  ARG A   3     -13.797  34.955 -50.781  0.00  0.00    +0.031 C 
BRANCH  20  21
ATOM     21  CG  ARG A   3     -12.352  35.359 -51.021  0.00  0.00    +0.045 C 
BRANCH  21  22
ATOM     22  CD  ARG A   3     -11.436  34.624 -50.066  0.00  0.00    +0.174 C 
BRANCH  22  23
ATOM     23  NE  ARG A   3     -11.735  34.981 -48.681  0.00  0.00    -0.265 N 
ATOM     24  CZ  ARG A   3     -11.165  34.425 -47.619  0.00  0.00    +0.342 C 
ATOM     25  NH2 ARG A   3     -11.508  34.828 -46.401  0.00  0.00    -0.292 N 
ATOM     26 HH21 ARG A   3     -11.064  34.395 -45.566  0.00  0.00    +0.255 HD
ATOM     27 HH22 ARG A   3     -12.220  35.576 -46.282  0.00  0.00    +0.255 HD
ATOM     28  NH1 ARG A   3     -10.252  33.471 -47.770  0.00  0.00    -0.292 N 
ATOM     29 HH11 ARG A   3      -9.809  33.039 -46.935  0.00  0.00    +0.255 HD
ATOM     30 HH12 ARG A   3      -9.981  33.157 -48.724  0.00  0.00    +0.255 HD
ATOM     31  HE  ARG A   3     -12.445  35.723 -48.516  0.00  0.00    +0.259 HD
ENDBRANCH  22  23
ENDBRANCH  21  22
ENDBRANCH  20  21
ENDBRANCH  17  20
ENDBRANCH  14  17
ENDBRANCH   1  13
BRANCH   1  32
ATOM     32  CB  PHE A   2     -13.392  40.387 -50.945  0.00  0.00    +0.055 C 
BRANCH  32  33
ATOM     33  CG  PHE A   2     -12.158  39.528 -50.892  0.00  0.00    -0.020 A 
ATOM     34  CD2 PHE A   2     -11.627  39.111 -49.674  0.00  0.00    -0.004 A 
ATOM     35  CE2 PHE A   2     -10.485  38.309 -49.627  0.00  0.00    -0.000 A 
ATOM     36  CZ  PHE A   2      -9.859  37.917 -50.813  0.00  0.00    -0.000 A 
ATOM     37  CE1 PHE A   2     -10.381  38.330 -52.032  0.00  0.00    -0.000 A 
ATOM     38  CD1 PHE A   2     -11.524  39.129 -52.068  0.00  0.00    -0.004 A 
ENDBRANCH  32  33
ENDBRANCH   1  32
TORSDOF 14
REMARK  Name = ../refined-set-2016/1szd/1szd_pocket.pdb
REMARK  199 active torsions:
REMARK  status: ('A' for Active; 'I' for Inactive)
REMARK    1  A    between atoms: _1  and  _3
REMARK    2  A    between atoms: _3  and  _4
REMARK    3  A    between atoms: _3  and  _6
REMARK    4  A    between atoms: _9  and  _11
REMARK    5  A    between atoms: _11  and  _12
REMARK    6  A    between atoms: _11  and  _14
REMARK    7  A    between atoms: _17  and  _19
REMARK    8  A    between atoms: _19  and  _20
REMARK    9  A    between atoms: _22  and  _24
REMARK   10  A    between atoms: _24  and  _25
REMARK   11  A    between atoms: _28  and  _30
REMARK   12  A    between atoms: _30  and  _31
REMARK   13  A    between atoms: _33  and  _35
REMARK   14  A    between atoms: _35  and  _36
REMARK   15  A    between atoms: _35  and  _38
REMARK   16  A    between atoms: _38  and  _39
REMARK   17  A    between atoms: _42  and  _44
REMARK   18  A    between atoms: _44  and  _45
REMARK   19  A    between atoms: _44  and  _47
REMARK   20  A    between atoms: _47  and  _48
REMARK   21  A    between atoms: _50  and  _52
REMARK   22  A    between atoms: _52  and  _53
REMARK   23  A    between atoms: _52  and  _55
REMARK   24  A    between atoms: _55  and  _56
REMARK   25  A    between atoms: _59  and  _61
REMARK   26  A    between atoms: _61  and  _62
REMARK   27  A    between atoms: _61  and  _64
REMARK   28  A    between atoms: _64  and  _65
REMARK   29  A    between atoms: _67  and  _69
REMARK   30  A    between atoms: _69  and  _70
REMARK   31  A    between atoms: _69  and  _72
REMARK   32  A    between atoms: _74  and  _76
REMARK   33  A    between atoms: _76  and  _77
REMARK   34  A    between atoms: _76  and  _79
REMARK   35  A    between atoms: _79  and  _80
REMARK   36  A    between atoms: _83  and  _85
REMARK   37  A    between atoms: _85  and  _86
REMARK   38  A    between atoms: _85  and  _88
REMARK   39  A    between atoms: _88  and  _89
REMARK   40  A    between atoms: _95  and  _97
REMARK   41  A    between atoms: _97  and  _98
REMARK   42  A    between atoms: _97  and  _100
REMARK   43  A    between atoms: _100  and  _101
REMARK   44  A    between atoms: _101  and  _102
REMARK   45  A    between atoms: _102  and  _103
REMARK   46  A    between atoms: _113  and  _114
REMARK   47  A    between atoms: _119  and  _121
REMARK   48  A    between atoms: _121  and  _122
REMARK   49  A    between atoms: _121  and  _124
REMARK   50  A    between atoms: _124  and  _125
REMARK   51  A    between atoms: _125  and  _126
REMARK   52  A    between atoms: _129  and  _131
REMARK   53  A    between atoms: _131  and  _132
REMARK   54  A    between atoms: _135  and  _137
REMARK   55  A    between atoms: _137  and  _138
REMARK   56  A    between atoms: _137  and  _140
REMARK   57  A    between atoms: _143  and  _145
REMARK   58  A    between atoms: _145  and  _146
REMARK   59  A    between atoms: _145  and  _148
REMARK   60  A    between atoms: _148  and  _149
REMARK   61  A    between atoms: _155  and  _157
REMARK   62  A    between atoms: _157  and  _158
REMARK   63  A    between atoms: _157  and  _160
REMARK   64  A    between atoms: _160  and  _161
REMARK   65  A    between atoms: _164  and  _166
REMARK   66  A    between atoms: _166  and  _167
REMARK   67  A    between atoms: _166  and  _169
REMARK   68  A    between atoms: _169  and  _170
REMARK   69  A    between atoms: _176  and  _178
REMARK   70  A    between atoms: _178  and  _179
REMARK   71  A    between atoms: _178  and  _181
REMARK   72  A    between atoms: _181  and  _182
REMARK   73  A    between atoms: _185  and  _187
REMARK   74  A    between atoms: _187  and  _188
REMARK   75  A    between atoms: _187  and  _190
REMARK   76  A    between atoms: _190  and  _191
REMARK   77  A    between atoms: _191  and  _192
REMARK   78  A    between atoms: _197  and  _199
REMARK   79  A    between atoms: _199  and  _200
REMARK   80  A    between atoms: _199  and  _202
REMARK   81  A    between atoms: _202  and  _203
REMARK   82  A    between atoms: _208  and  _210
REMARK   83  A    between atoms: _210  and  _211
REMARK   84  A    between atoms: _210  and  _213
REMARK   85  A    between atoms: _213  and  _214
REMARK   86  A    between atoms: _217  and  _219
REMARK   87  A    between atoms: _219  and  _220
REMARK   88  A    between atoms: _219  and  _222
REMARK   89  A    between atoms: _222  and  _223
REMARK   90  A    between atoms: _228  and  _230
REMARK   91  A    between atoms: _230  and  _231
REMARK   92  A    between atoms: _230  and  _233
REMARK   93  A    between atoms: _233  and  _234
REMARK   94  A    between atoms: _237  and  _239
REMARK   95  A    between atoms: _239  and  _240
REMARK   96  A    between atoms: _239  and  _242
REMARK   97  A    between atoms: _245  and  _247
REMARK   98  A    between atoms: _247  and  _248
REMARK   99  A    between atoms: _247  and  _250
REMARK  100  A    between atoms: _250  and  _251
REMARK  101  A    between atoms: _257  and  _259
REMARK  102  A    between atoms: _259  and  _260
REMARK  103  A    between atoms: _259  and  _262
REMARK  104  A    between atoms: _265  and  _267
REMARK  105  A    between atoms: _267  and  _268
REMARK  106  A    between atoms: _267  and  _270
REMARK  107  A    between atoms: _273  and  _275
REMARK  108  A    between atoms: _275  and  _276
REMARK  109  A    between atoms: _278  and  _280
REMARK  110  A    between atoms: _280  and  _281
REMARK  111  A    between atoms: _280  and  _283
REMARK  112  A    between atoms: _283  and  _284
REMARK  113  A    between atoms: _287  and  _289
REMARK  114  A    between atoms: _289  and  _290
REMARK  115  A    between atoms: _289  and  _292
REMARK  116  A    between atoms: _292  and  _293
REMARK  117  A    between atoms: _295  and  _297
REMARK  118  A    between atoms: _297  and  _298
REMARK  119  A    between atoms: _297  and  _300
REMARK  120  A    between atoms: _300  and  _301
REMARK  121  A    between atoms: _304  and  _306
REMARK  122  A    between atoms: _306  and  _307
REMARK  123  A    between atoms: _310  and  _312
REMARK  124  A    between atoms: _312  and  _313
REMARK  125  A    between atoms: _312  and  _315
REMARK  126  A    between atoms: _318  and  _320
REMARK  127  A    between atoms: _320  and  _321
REMARK  128  A    between atoms: _320  and  _323
REMARK  129  A    between atoms: _323  and  _324
REMARK  130  A    between atoms: _329  and  _330
REMARK  131  A    between atoms: _332  and  _334
REMARK  132  A    between atoms: _334  and  _335
REMARK  133  A    between atoms: _334  and  _337
REMARK  134  A    between atoms: _337  and  _338
REMARK  135  A    between atoms: _344  and  _346
REMARK  136  A    between atoms: _346  and  _347
REMARK  137  A    between atoms: _346  and  _349
REMARK  138  A    between atoms: _349  and  _350
REMARK  139  A    between atoms: _353  and  _355
REMARK  140  A    between atoms: _355  and  _356
REMARK  141  A    between atoms: _355  and  _358
REMARK  142  A    between atoms: _360  and  _362
REMARK  143  A    between atoms: _362  and  _363
REMARK  144  A    between atoms: _362  and  _365
REMARK  145  A    between atoms: _365  and  _366
REMARK  146  A    between atoms: _371  and  _373
REMARK  147  A    between atoms: _373  and  _374
REMARK  148  A    between atoms: _373  and  _376
REMARK  149  A    between atoms: _376  and  _377
REMARK  150  A    between atoms: _380  and  _382
REMARK  151  A    between atoms: _382  and  _383
REMARK  152  A    between atoms: _382  and  _385
REMARK  153  A    between atoms: _385  and  _386
REMARK  154  A    between atoms: _386  and  _387
REMARK  155  A    between atoms: _390  and  _392
REMARK  156  A    between atoms: _392  and  _393
REMARK  157  A    between atoms: _392  and  _395
REMARK  158  A    between atoms: _395  and  _396
REMARK  159  A    between atoms: _399  and  _401
REMARK  160  A    between atoms: _401  and  _402
REMARK  161  A    between atoms: _401  and  _404
REMARK  162  A    between atoms: _407  and  _409
REMARK  163  A    between atoms: _409  and  _410
REMARK  164  A    between atoms: _412  and  _414
REMARK  165  A    between atoms: _414  and  _415
REMARK  166  A    between atoms: _414  and  _417
REMARK  167  A    between atoms: _420  and  _422
REMARK  168  A    between atoms: _422  and  _423
REMARK  169  A    between atoms: _422  and  _425
REMARK  170  A    between atoms: _425  and  _426
REMARK  171  A    between atoms: _431  and  _433
REMARK  172  A    between atoms: _433  and  _434
REMARK  173  A    between atoms: _433  and  _436
REMARK  174  A    between atoms: _436  and  _437
REMARK  175  A    between atoms: _437  and  _438
REMARK  176  A    between atoms: _443  and  _445
REMARK  177  A    between atoms: _445  and  _446
REMARK  178  A    between atoms: _445  and  _448
REMARK  179  A    between atoms: _448  and  _449
REMARK  180  A    between atoms: _454  and  _455
REMARK  181  A    between atoms: _457  and  _459
REMARK  182  A    between atoms: _459  and  _460
REMARK  183  A    between atoms: _459  and  _462
REMARK  184  A    between atoms: _462  and  _463
REMARK  185  A    between atoms: _465  and  _467
REMARK  186  A    between atoms: _467  and  _468
REMARK  187  A    between atoms: _467  and  _470
REMARK  188  A    between atoms: _470  and  _471
REMARK  189  A    between atoms: _474  and  _476
REMARK  190  A    between atoms: _476  and  _477
REMARK  191  A    between atoms: _476  and  _479
REMARK  192  A    between atoms: _479  and  _480
REMARK  193  A    between atoms: _480  and  _481
REMARK  194  A    between atoms: _484  and  _486
REMARK  195  A    between atoms: _486  and  _487
REMARK  196  A    between atoms: _486  and  _489
REMARK  197  A    between atoms: _489  and  _490
REMARK  198  A    between atoms: _496  and  _498
REMARK  199  A    between atoms: _498  and  _499
REMARK                            x       y       z     vdW  Elec       q    Type
REMARK                         _______ _______ _______ _____ _____    ______ ____
ROOT
ATOM      1  C   ALA A   3      -7.277  40.257 -57.865  0.00  0.00    +0.241 C 
ATOM      2  N   VAL A   4      -8.089  40.595 -56.865  0.00  0.00    -0.297 N 
ATOM      3  H   VAL A   4      -8.700  39.872 -56.435  0.00  0.00    +0.150 HD
ATOM      4  O   ALA A   3      -6.535  41.071 -58.416  0.00  0.00    -0.273 OA
ENDROOT
BRANCH   1   5
ATOM      5  CA  ALA A   3      -7.308  38.795 -58.318  0.00  0.00    +0.149 C 
ATOM      6  CB  ALA A   3      -8.077  38.670 -59.631  0.00  0.00    +0.031 C 
BRANCH   5   9
ATOM      7  C   GLU A   2      -7.328  37.820 -56.114  0.00  0.00    +0.241 C 
ATOM      8  O   GLU A   2      -6.216  38.291 -55.878  0.00  0.00    -0.273 OA
ATOM      9  N   ALA A   3      -7.942  37.996 -57.278  0.00  0.00    -0.297 N 
ATOM     10  H   ALA A   3      -8.873  37.565 -57.447  0.00  0.00    +0.150 HD
BRANCH   7  11
ATOM     11  CA  GLU A   2      -8.054  37.013 -55.049  0.00  0.00    +0.149 C 
BRANCH  11  14
ATOM     12  C   PRO A   1     -10.364  37.582 -55.426  0.00  0.00    +0.239 C 
ATOM     13  O   PRO A   1     -10.102  38.778 -55.327  0.00  0.00    -0.274 OA
ATOM     14  N   GLU A   2      -9.437  36.640 -55.330  0.00  0.00    -0.297 N 
ATOM     15  H   GLU A   2      -9.694  35.640 -55.454  0.00  0.00    +0.150 HD
BRANCH  12  17
ATOM     16  N   PRO A   1     -12.090  36.303 -56.839  0.00  0.00    -0.210 NA
ATOM     17  CA  PRO A   1     -11.798  37.133 -55.666  0.00  0.00    +0.149 C 
ATOM     18  CB  PRO A   1     -12.332  36.298 -54.507  0.00  0.00    +0.028 C 
ATOM     19  CG  PRO A   1     -13.474  35.565 -55.125  0.00  0.00    +0.021 C 
ATOM     20  CD  PRO A   1     -12.923  35.146 -56.465  0.00  0.00    +0.089 C 
ENDBRANCH  12  17
ENDBRANCH  11  14
BRANCH  11  21
ATOM     21  CB  GLU A   2      -7.244  35.779 -54.667  0.00  0.00    +0.041 C 
BRANCH  21  22
ATOM     22  CG  GLU A   2      -7.593  35.289 -53.267  0.00  0.00    +0.116 C 
BRANCH  22  23
ATOM     23  CD  GLU A   2      -6.798  34.081 -52.828  0.00  0.00    +0.365 C 
ATOM     24  OE2 GLU A   2      -6.861  33.750 -51.626  0.00  0.00    -0.246 OA
ATOM     25  OE1 GLU A   2      -6.124  33.458 -53.674  0.00  0.00    -0.246 OA
ENDBRANCH  22  23
ENDBRANCH  21  22
ENDBRANCH  11  21
ENDBRANCH   7  11
ENDBRANCH   5   9
ENDBRANCH   1   5
BRANCH   2  26
ATOM     26  CA  VAL A   4      -8.134  41.964 -56.363  0.00  0.00    +0.149 C 
BRANCH  26  27
ATOM     27  C   VAL A   4      -6.817  42.289 -55.655  0.00  0.00    +0.241 C 
ATOM     28  N   PHE A   5      -6.081  41.244 -55.287  0.00  0.00    -0.298 N 
ATOM     29  H   PHE A   5      -6.438  40.287 -55.481  0.00  0.00    +0.150 HD
ATOM     30  O   VAL A   4      -6.482  43.458 -55.451  0.00  0.00    -0.273 OA
BRANCH  28  31
ATOM     31  CA  PHE A   5      -4.788  41.391 -54.620  0.00  0.00    +0.141 C 
BRANCH  31  32
ATOM     32  C   PHE A   5      -3.688  40.827 -55.513  0.00  0.00    +0.227 C 
ATOM     33  O   PHE A   5      -2.706  40.267 -55.035  0.00  0.00    -0.286 OA
ENDBRANCH  31  32
BRANCH  31  34
ATOM     34  CB  PHE A   5      -4.788  40.653 -53.277  0.00  0.00    +0.054 C 
BRANCH  34  35
ATOM     35  CG  PHE A   5      -5.744  41.225 -52.269  0.00  0.00    -0.020 A 
ATOM     36  CD2 PHE A   5      -6.701  40.417 -51.667  0.00  0.00    -0.004 A 
ATOM     37  CE2 PHE A   5      -7.583  40.934 -50.728  0.00  0.00    -0.000 A 
ATOM     38  CZ  PHE A   5      -7.516  42.277 -50.379  0.00  0.00    -0.000 A 
ATOM     39  CE1 PHE A   5      -6.564  43.096 -50.974  0.00  0.00    -0.000 A 
ATOM     40  CD1 PHE A   5      -5.685  42.567 -51.913  0.00  0.00    -0.004 A 
ENDBRANCH  34  35
ENDBRANCH  31  34
ENDBRANCH  28  31
ENDBRANCH  26  27
BRANCH  26  41
ATOM     41  CB  VAL A   4      -9.335  42.166 -55.395  0.00  0.00    +0.027 C 
ATOM     42  CG2 VAL A   4      -9.058  41.491 -54.063  0.00  0.00    +0.002 C 
ATOM     43  CG1 VAL A   4      -9.625  43.652 -55.209  0.00  0.00    +0.002 C 
ENDBRANCH  26  41
ENDBRANCH   2  26
TORSDOF 15
REMARK  Name = ../refined-set-2016/1szd/1szd_pocket.pdb
REMARK  199 active torsions:
REMARK  status: ('A' for Active; 'I' for Inactive)
REMARK    1  A    between atoms: _1  and  _3
REMARK    2  A    between atoms: _3  and  _4
REMARK    3  A    between atoms: _3  and  _6
REMARK    4  A    between atoms: _9  and  _11
REMARK    5  A    between atoms: _11  and  _12
REMARK    6  A    between atoms: _11  and  _14
REMARK    7  A    between atoms: _17  and  _19
REMARK    8  A    between atoms: _19  and  _20
REMARK    9  A    between atoms: _22  and  _24
REMARK   10  A    between atoms: _24  and  _25
REMARK   11  A    between atoms: _28  and  _30
REMARK   12  A    between atoms: _30  and  _31
REMARK   13  A    between atoms: _33  and  _35
REMARK   14  A    between atoms: _35  and  _36
REMARK   15  A    between atoms: _35  and  _38
REMARK   16  A    between atoms: _38  and  _39
REMARK   17  A    between atoms: _42  and  _44
REMARK   18  A    between atoms: _44  and  _45
REMARK   19  A    between atoms: _44  and  _47
REMARK   20  A    between atoms: _47  and  _48
REMARK   21  A    between atoms: _50  and  _52
REMARK   22  A    between atoms: _52  and  _53
REMARK   23  A    between atoms: _52  and  _55
REMARK   24  A    between atoms: _55  and  _56
REMARK   25  A    between atoms: _59  and  _61
REMARK   26  A    between atoms: _61  and  _62
REMARK   27  A    between atoms: _61  and  _64
REMARK   28  A    between atoms: _64  and  _65
REMARK   29  A    between atoms: _67  and  _69
REMARK   30  A    between atoms: _69  and  _70
REMARK   31  A    between atoms: _69  and  _72
REMARK   32  A    between atoms: _74  and  _76
REMARK   33  A    between atoms: _76  and  _77
REMARK   34  A    between atoms: _76  and  _79
REMARK   35  A    between atoms: _79  and  _80
REMARK   36  A    between atoms: _83  and  _85
REMARK   37  A    between atoms: _85  and  _86
REMARK   38  A    between atoms: _85  and  _88
REMARK   39  A    between atoms: _88  and  _89
REMARK   40  A    between atoms: _95  and  _97
REMARK   41  A    between atoms: _97  and  _98
REMARK   42  A    between atoms: _97  and  _100
REMARK   43  A    between atoms: _100  and  _101
REMARK   44  A    between atoms: _101  and  _102
REMARK   45  A    between atoms: _102  and  _103
REMARK   46  A    between atoms: _113  and  _114
REMARK   47  A    between atoms: _119  and  _121
REMARK   48  A    between atoms: _121  and  _122
REMARK   49  A    between atoms: _121  and  _124
REMARK   50  A    between atoms: _124  and  _125
REMARK   51  A    between atoms: _125  and  _126
REMARK   52  A    between atoms: _129  and  _131
REMARK   53  A    between atoms: _131  and  _132
REMARK   54  A    between atoms: _135  and  _137
REMARK   55  A    between atoms: _137  and  _138
REMARK   56  A    between atoms: _137  and  _140
REMARK   57  A    between atoms: _143  and  _145
REMARK   58  A    between atoms: _145  and  _146
REMARK   59  A    between atoms: _145  and  _148
REMARK   60  A    between atoms: _148  and  _149
REMARK   61  A    between atoms: _155  and  _157
REMARK   62  A    between atoms: _157  and  _158
REMARK   63  A    between atoms: _157  and  _160
REMARK   64  A    between atoms: _160  and  _161
REMARK   65  A    between atoms: _164  and  _166
REMARK   66  A    between atoms: _166  and  _167
REMARK   67  A    between atoms: _166  and  _169
REMARK   68  A    between atoms: _169  and  _170
REMARK   69  A    between atoms: _176  and  _178
REMARK   70  A    between atoms: _178  and  _179
REMARK   71  A    between atoms: _178  and  _181
REMARK   72  A    between atoms: _181  and  _182
REMARK   73  A    between atoms: _185  and  _187
REMARK   74  A    between atoms: _187  and  _188
REMARK   75  A    between atoms: _187  and  _190
REMARK   76  A    between atoms: _190  and  _191
REMARK   77  A    between atoms: _191  and  _192
REMARK   78  A    between atoms: _197  and  _199
REMARK   79  A    between atoms: _199  and  _200
REMARK   80  A    between atoms: _199  and  _202
REMARK   81  A    between atoms: _202  and  _203
REMARK   82  A    between atoms: _208  and  _210
REMARK   83  A    between atoms: _210  and  _211
REMARK   84  A    between atoms: _210  and  _213
REMARK   85  A    between atoms: _213  and  _214
REMARK   86  A    between atoms: _217  and  _219
REMARK   87  A    between atoms: _219  and  _220
REMARK   88  A    between atoms: _219  and  _222
REMARK   89  A    between atoms: _222  and  _223
REMARK   90  A    between atoms: _228  and  _230
REMARK   91  A    between atoms: _230  and  _231
REMARK   92  A    between atoms: _230  and  _233
REMARK   93  A    between atoms: _233  and  _234
REMARK   94  A    between atoms: _237  and  _239
REMARK   95  A    between atoms: _239  and  _240
REMARK   96  A    between atoms: _239  and  _242
REMARK   97  A    between atoms: _245  and  _247
REMARK   98  A    between atoms: _247  and  _248
REMARK   99  A    between atoms: _247  and  _250
REMARK  100  A    between atoms: _250  and  _251
REMARK  101  A    between atoms: _257  and  _259
REMARK  102  A    between atoms: _259  and  _260
REMARK  103  A    between atoms: _259  and  _262
REMARK  104  A    between atoms: _265  and  _267
REMARK  105  A    between atoms: _267  and  _268
REMARK  106  A    between atoms: _267  and  _270
REMARK  107  A    between atoms: _273  and  _275
REMARK  108  A    between atoms: _275  and  _276
REMARK  109  A    between atoms: _278  and  _280
REMARK  110  A    between atoms: _280  and  _281
REMARK  111  A    between atoms: _280  and  _283
REMARK  112  A    between atoms: _283  and  _284
REMARK  113  A    between atoms: _287  and  _289
REMARK  114  A    between atoms: _289  and  _290
REMARK  115  A    between atoms: _289  and  _292
REMARK  116  A    between atoms: _292  and  _293
REMARK  117  A    between atoms: _295  and  _297
REMARK  118  A    between atoms: _297  and  _298
REMARK  119  A    between atoms: _297  and  _300
REMARK  120  A    between atoms: _300  and  _301
REMARK  121  A    between atoms: _304  and  _306
REMARK  122  A    between atoms: _306  and  _307
REMARK  123  A    between atoms: _310  and  _312
REMARK  124  A    between atoms: _312  and  _313
REMARK  125  A    between atoms: _312  and  _315
REMARK  126  A    between atoms: _318  and  _320
REMARK  127  A    between atoms: _320  and  _321
REMARK  128  A    between atoms: _320  and  _323
REMARK  129  A    between atoms: _323  and  _324
REMARK  130  A    between atoms: _329  and  _330
REMARK  131  A    between atoms: _332  and  _334
REMARK  132  A    between atoms: _334  and  _335
REMARK  133  A    between atoms: _334  and  _337
REMARK  134  A    between atoms: _337  and  _338
REMARK  135  A    between atoms: _344  and  _346
REMARK  136  A    between atoms: _346  and  _347
REMARK  137  A    between atoms: _346  and  _349
REMARK  138  A    between atoms: _349  and  _350
REMARK  139  A    between atoms: _353  and  _355
REMARK  140  A    between atoms: _355  and  _356
REMARK  141  A    between atoms: _355  and  _358
REMARK  142  A    between atoms: _360  and  _362
REMARK  143  A    between atoms: _362  and  _363
REMARK  144  A    between atoms: _362  and  _365
REMARK  145  A    between atoms: _365  and  _366
REMARK  146  A    between atoms: _371  and  _373
REMARK  147  A    between atoms: _373  and  _374
REMARK  148  A    between atoms: _373  and  _376
REMARK  149  A    between atoms: _376  and  _377
REMARK  150  A    between atoms: _380  and  _382
REMARK  151  A    between atoms: _382  and  _383
REMARK  152  A    between atoms: _382  and  _385
REMARK  153  A    between atoms: _385  and  _386
REMARK  154  A    between atoms: _386  and  _387
REMARK  155  A    between atoms: _390  and  _392
REMARK  156  A    between atoms: _392  and  _393
REMARK  157  A    between atoms: _392  and  _395
REMARK  158  A    between atoms: _395  and  _396
REMARK  159  A    between atoms: _399  and  _401
REMARK  160  A    between atoms: _401  and  _402
REMARK  161  A    between atoms: _401  and  _404
REMARK  162  A    between atoms: _407  and  _409
REMARK  163  A    between atoms: _409  and  _410
REMARK  164  A    between atoms: _412  and  _414
REMARK  165  A    between atoms: _414  and  _415
REMARK  166  A    between atoms: _414  and  _417
REMARK  167  A    between atoms: _420  and  _422
REMARK  168  A    between atoms: _422  and  _423
REMARK  169  A    between atoms: _422  and  _425
REMARK  170  A    between atoms: _425  and  _426
REMARK  171  A    between atoms: _431  and  _433
REMARK  172  A    between atoms: _433  and  _434
REMARK  173  A    between atoms: _433  and  _436
REMARK  174  A    between atoms: _436  and  _437
REMARK  175  A    between atoms: _437  and  _438
REMARK  176  A    between atoms: _443  and  _445
REMARK  177  A    between atoms: _445  and  _446
REMARK  178  A    between atoms: _445  and  _448
REMARK  179  A    between atoms: _448  and  _449
REMARK  180  A    between atoms: _454  and  _455
REMARK  181  A    between atoms: _457  and  _459
REMARK  182  A    between atoms: _459  and  _460
REMARK  183  A    between atoms: _459  and  _462
REMARK  184  A    between atoms: _462  and  _463
REMARK  185  A    between atoms: _465  and  _467
REMARK  186  A    between atoms: _467  and  _468
REMARK  187  A    between atoms: _467  and  _470
REMARK  188  A    between atoms: _470  and  _471
REMARK  189  A    between atoms: _474  and  _476
REMARK  190  A    between atoms: _476  and  _477
REMARK  191  A    between atoms: _476  and  _479
REMARK  192  A    between atoms: _479  and  _480
REMARK  193  A    between atoms: _480  and  _481
REMARK  194  A    between atoms: _484  and  _486
REMARK  195  A    between atoms: _486  and  _487
REMARK  196  A    between atoms: _486  and  _489
REMARK  197  A    between atoms: _489  and  _490
REMARK  198  A    between atoms: _496  and  _498
REMARK  199  A    between atoms: _498  and  _499
REMARK                            x       y       z     vdW  Elec       q    Type
REMARK                         _______ _______ _______ _____ _____    ______ ____
ROOT
ATOM      1  CA  LEU A   1     -12.497  47.082 -52.264  0.00  0.00    +0.133 C 
ENDROOT
BRANCH   1   2
ATOM      2  N   LEU A   1     -12.666  47.824 -53.504  0.00  0.00    -0.239 NA
ATOM      3  H   LEU A   1     -12.076  47.588 -54.327  0.00  0.00    +0.142 HD
ENDBRANCH   1   2
BRANCH   1   4
ATOM      4  C   LEU A   1     -11.934  47.999 -51.184  0.00  0.00    +0.224 C 
ATOM      5  O   LEU A   1     -12.358  47.951 -50.032  0.00  0.00    -0.287 OA
ENDBRANCH   1   4
BRANCH   1   6
ATOM      6  CB  LEU A   1     -11.556  45.892 -52.471  0.00  0.00    +0.025 C 
BRANCH   6   7
ATOM      7  CG  LEU A   1     -11.171  45.133 -51.191  0.00  0.00    +0.002 C 
ATOM      8  CD2 LEU A   1      -9.902  45.744 -50.596  0.00  0.00    +0.000 C 
ATOM      9  CD1 LEU A   1     -10.971  43.656 -51.493  0.00  0.00    +0.000 C 
ENDBRANCH   6   7
ENDBRANCH   1   6
TORSDOF 4
REMARK  Name = ../refined-set-2016/1szd/1szd_pocket.pdb
REMARK  199 active torsions:
REMARK  status: ('A' for Active; 'I' for Inactive)
REMARK    1  A    between atoms: _1  and  _3
REMARK    2  A    between atoms: _3  and  _4
REMARK    3  A    between atoms: _3  and  _6
REMARK    4  A    between atoms: _9  and  _11
REMARK    5  A    between atoms: _11  and  _12
REMARK    6  A    between atoms: _11  and  _14
REMARK    7  A    between atoms: _17  and  _19
REMARK    8  A    between atoms: _19  and  _20
REMARK    9  A    between atoms: _22  and  _24
REMARK   10  A    between atoms: _24  and  _25
REMARK   11  A    between atoms: _28  and  _30
REMARK   12  A    between atoms: _30  and  _31
REMARK   13  A    between atoms: _33  and  _35
REMARK   14  A    between atoms: _35  and  _36
REMARK   15  A    between atoms: _35  and  _38
REMARK   16  A    between atoms: _38  and  _39
REMARK   17  A    between atoms: _42  and  _44
REMARK   18  A    between atoms: _44  and  _45
REMARK   19  A    between atoms: _44  and  _47
REMARK   20  A    between atoms: _47  and  _48
REMARK   21  A    between atoms: _50  and  _52
REMARK   22  A    between atoms: _52  and  _53
REMARK   23  A    between atoms: _52  and  _55
REMARK   24  A    between atoms: _55  and  _56
REMARK   25  A    between atoms: _59  and  _61
REMARK   26  A    between atoms: _61  and  _62
REMARK   27  A    between atoms: _61  and  _64
REMARK   28  A    between atoms: _64  and  _65
REMARK   29  A    between atoms: _67  and  _69
REMARK   30  A    between atoms: _69  and  _70
REMARK   31  A    between atoms: _69  and  _72
REMARK   32  A    between atoms: _74  and  _76
REMARK   33  A    between atoms: _76  and  _77
REMARK   34  A    between atoms: _76  and  _79
REMARK   35  A    between atoms: _79  and  _80
REMARK   36  A    between atoms: _83  and  _85
REMARK   37  A    between atoms: _85  and  _86
REMARK   38  A    between atoms: _85  and  _88
REMARK   39  A    between atoms: _88  and  _89
REMARK   40  A    between atoms: _95  and  _97
REMARK   41  A    between atoms: _97  and  _98
REMARK   42  A    between atoms: _97  and  _100
REMARK   43  A    between atoms: _100  and  _101
REMARK   44  A    between atoms: _101  and  _102
REMARK   45  A    between atoms: _102  and  _103
REMARK   46  A    between atoms: _113  and  _114
REMARK   47  A    between atoms: _119  and  _121
REMARK   48  A    between atoms: _121  and  _122
REMARK   49  A    between atoms: _121  and  _124
REMARK   50  A    between atoms: _124  and  _125
REMARK   51  A    between atoms: _125  and  _126
REMARK   52  A    between atoms: _129  and  _131
REMARK   53  A    between atoms: _131  and  _132
REMARK   54  A    between atoms: _135  and  _137
REMARK   55  A    between atoms: _137  and  _138
REMARK   56  A    between atoms: _137  and  _140
REMARK   57  A    between atoms: _143  and  _145
REMARK   58  A    between atoms: _145  and  _146
REMARK   59  A    between atoms: _145  and  _148
REMARK   60  A    between atoms: _148  and  _149
REMARK   61  A    between atoms: _155  and  _157
REMARK   62  A    between atoms: _157  and  _158
REMARK   63  A    between atoms: _157  and  _160
REMARK   64  A    between atoms: _160  and  _161
REMARK   65  A    between atoms: _164  and  _166
REMARK   66  A    between atoms: _166  and  _167
REMARK   67  A    between atoms: _166  and  _169
REMARK   68  A    between atoms: _169  and  _170
REMARK   69  A    between atoms: _176  and  _178
REMARK   70  A    between atoms: _178  and  _179
REMARK   71  A    between atoms: _178  and  _181
REMARK   72  A    between atoms: _181  and  _182
REMARK   73  A    between atoms: _185  and  _187
REMARK   74  A    between atoms: _187  and  _188
REMARK   75  A    between atoms: _187  and  _190
REMARK   76  A    between atoms: _190  and  _191
REMARK   77  A    between atoms: _191  and  _192
REMARK   78  A    between atoms: _197  and  _199
REMARK   79  A    between atoms: _199  and  _200
REMARK   80  A    between atoms: _199  and  _202
REMARK   81  A    between atoms: _202  and  _203
REMARK   82  A    between atoms: _208  and  _210
REMARK   83  A    between atoms: _210  and  _211
REMARK   84  A    between atoms: _210  and  _213
REMARK   85  A    between atoms: _213  and  _214
REMARK   86  A    between atoms: _217  and  _219
REMARK   87  A    between atoms: _219  and  _220
REMARK   88  A    between atoms: _219  and  _222
REMARK   89  A    between atoms: _222  and  _223
REMARK   90  A    between atoms: _228  and  _230
REMARK   91  A    between atoms: _230  and  _231
REMARK   92  A    between atoms: _230  and  _233
REMARK   93  A    between atoms: _233  and  _234
REMARK   94  A    between atoms: _237  and  _239
REMARK   95  A    between atoms: _239  and  _240
REMARK   96  A    between atoms: _239  and  _242
REMARK   97  A    between atoms: _245  and  _247
REMARK   98  A    between atoms: _247  and  _248
REMARK   99  A    between atoms: _247  and  _250
REMARK  100  A    between atoms: _250  and  _251
REMARK  101  A    between atoms: _257  and  _259
REMARK  102  A    between atoms: _259  and  _260
REMARK  103  A    between atoms: _259  and  _262
REMARK  104  A    between atoms: _265  and  _267
REMARK  105  A    between atoms: _267  and  _268
REMARK  106  A    between atoms: _267  and  _270
REMARK  107  A    between atoms: _273  and  _275
REMARK  108  A    between atoms: _275  and  _276
REMARK  109  A    between atoms: _278  and  _280
REMARK  110  A    between atoms: _280  and  _281
REMARK  111  A    between atoms: _280  and  _283
REMARK  112  A    between atoms: _283  and  _284
REMARK  113  A    between atoms: _287  and  _289
REMARK  114  A    between atoms: _289  and  _290
REMARK  115  A    between atoms: _289  and  _292
REMARK  116  A    between atoms: _292  and  _293
REMARK  117  A    between atoms: _295  and  _297
REMARK  118  A    between atoms: _297  and  _298
REMARK  119  A    between atoms: _297  and  _300
REMARK  120  A    between atoms: _300  and  _301
REMARK  121  A    between atoms: _304  and  _306
REMARK  122  A    between atoms: _306  and  _307
REMARK  123  A    between atoms: _310  and  _312
REMARK  124  A    between atoms: _312  and  _313
REMARK  125  A    between atoms: _312  and  _315
REMARK  126  A    between atoms: _318  and  _320
REMARK  127  A    between atoms: _320  and  _321
REMARK  128  A    between atoms: _320  and  _323
REMARK  129  A    between atoms: _323  and  _324
REMARK  130  A    between atoms: _329  and  _330
REMARK  131  A    between atoms: _332  and  _334
REMARK  132  A    between atoms: _334  and  _335
REMARK  133  A    between atoms: _334  and  _337
REMARK  134  A    between atoms: _337  and  _338
REMARK  135  A    between atoms: _344  and  _346
REMARK  136  A    between atoms: _346  and  _347
REMARK  137  A    between atoms: _346  and  _349
REMARK  138  A    between atoms: _349  and  _350
REMARK  139  A    between atoms: _353  and  _355
REMARK  140  A    between atoms: _355  and  _356
REMARK  141  A    between atoms: _355  and  _358
REMARK  142  A    between atoms: _360  and  _362
REMARK  143  A    between atoms: _362  and  _363
REMARK  144  A    between atoms: _362  and  _365
REMARK  145  A    between atoms: _365  and  _366
REMARK  146  A    between atoms: _371  and  _373
REMARK  147  A    between atoms: _373  and  _374
REMARK  148  A    between atoms: _373  and  _376
REMARK  149  A    between atoms: _376  and  _377
REMARK  150  A    between atoms: _380  and  _382
REMARK  151  A    between atoms: _382  and  _383
REMARK  152  A    between atoms: _382  and  _385
REMARK  153  A    between atoms: _385  and  _386
REMARK  154  A    between atoms: _386  and  _387
REMARK  155  A    between atoms: _390  and  _392
REMARK  156  A    between atoms: _392  and  _393
REMARK  157  A    between atoms: _392  and  _395
REMARK  158  A    between atoms: _395  and  _396
REMARK  159  A    between atoms: _399  and  _401
REMARK  160  A    between atoms: _401  and  _402
REMARK  161  A    between atoms: _401  and  _404
REMARK  162  A    between atoms: _407  and  _409
REMARK  163  A    between atoms: _409  and  _410
REMARK  164  A    between atoms: _412  and  _414
REMARK  165  A    between atoms: _414  and  _415
REMARK  166  A    between atoms: _414  and  _417
REMARK  167  A    between atoms: _420  and  _422
REMARK  168  A    between atoms: _422  and  _423
REMARK  169  A    between atoms: _422  and  _425
REMARK  170  A    between atoms: _425  and  _426
REMARK  171  A    between atoms: _431  and  _433
REMARK  172  A    between atoms: _433  and  _434
REMARK  173  A    between atoms: _433  and  _436
REMARK  174  A    between atoms: _436  and  _437
REMARK  175  A    between atoms: _437  and  _438
REMARK  176  A    between atoms: _443  and  _445
REMARK  177  A    between atoms: _445  and  _446
REMARK  178  A    between atoms: _445  and  _448
REMARK  179  A    between atoms: _448  and  _449
REMARK  180  A    between atoms: _454  and  _455
REMARK  181  A    between atoms: _457  and  _459
REMARK  182  A    between atoms: _459  and  _460
REMARK  183  A    between atoms: _459  and  _462
REMARK  184  A    between atoms: _462  and  _463
REMARK  185  A    between atoms: _465  and  _467
REMARK  186  A    between atoms: _467  and  _468
REMARK  187  A    between atoms: _467  and  _470
REMARK  188  A    between atoms: _470  and  _471
REMARK  189  A    between atoms: _474  and  _476
REMARK  190  A    between atoms: _476  and  _477
REMARK  191  A    between atoms: _476  and  _479
REMARK  192  A    between atoms: _479  and  _480
REMARK  193  A    between atoms: _480  and  _481
REMARK  194  A    between atoms: _484  and  _486
REMARK  195  A    between atoms: _486  and  _487
REMARK  196  A    between atoms: _486  and  _489
REMARK  197  A    between atoms: _489  and  _490
REMARK  198  A    between atoms: _496  and  _498
REMARK  199  A    between atoms: _498  and  _499
REMARK                            x       y       z     vdW  Elec       q    Type
REMARK                         _______ _______ _______ _____ _____    ______ ____
ROOT
ATOM      1  CB  PHE A   1     -10.521  38.607 -30.159  0.00  0.00    +0.051 C 
ENDROOT
BRANCH   1   2
ATOM      2  CG  PHE A   1      -9.210  37.881 -30.226  0.00  0.00    -0.020 A 
ATOM      3  CD2 PHE A   1      -8.971  36.768 -29.423  0.00  0.00    -0.004 A 
ATOM      4  CE2 PHE A   1      -7.723  36.145 -29.421  0.00  0.00    -0.000 A 
ATOM      5  CZ  PHE A   1      -6.700  36.636 -30.229  0.00  0.00    -0.000 A 
ATOM      6  CE1 PHE A   1      -6.930  37.743 -31.039  0.00  0.00    -0.000 A 
ATOM      7  CD1 PHE A   1      -8.182  38.356 -31.034  0.00  0.00    -0.004 A 
ENDBRANCH   1   2
BRANCH   1   8
ATOM      8  CA  PHE A   1     -10.567  39.661 -29.052  0.00  0.00    +0.137 C 
BRANCH   8   9
ATOM      9  N   PHE A   1     -11.868  40.311 -28.990  0.00  0.00    -0.239 NA
ATOM     10  H   PHE A   1     -12.582  40.124 -29.722  0.00  0.00    +0.142 HD
ENDBRANCH   8   9
BRANCH   8  11
ATOM     11  C   PHE A   1      -9.455  40.681 -29.282  0.00  0.00    +0.224 C 
ATOM     12  O   PHE A   1      -8.378  40.568 -28.693  0.00  0.00    -0.287 OA
ENDBRANCH   8  11
ENDBRANCH   1   8
TORSDOF 4
REMARK  Name = ../refined-set-2016/1szd/1szd_pocket.pdb
REMARK  199 active torsions:
REMARK  status: ('A' for Active; 'I' for Inactive)
REMARK    1  A    between atoms: _1  and  _3
REMARK    2  A    between atoms: _3  and  _4
REMARK    3  A    between atoms: _3  and  _6
REMARK    4  A    between atoms: _9  and  _11
REMARK    5  A    between atoms: _11  and  _12
REMARK    6  A    between atoms: _11  and  _14
REMARK    7  A    between atoms: _17  and  _19
REMARK    8  A    between atoms: _19  and  _20
REMARK    9  A    between atoms: _22  and  _24
REMARK   10  A    between atoms: _24  and  _25
REMARK   11  A    between atoms: _28  and  _30
REMARK   12  A    between atoms: _30  and  _31
REMARK   13  A    between atoms: _33  and  _35
REMARK   14  A    between atoms: _35  and  _36
REMARK   15  A    between atoms: _35  and  _38
REMARK   16  A    between atoms: _38  and  _39
REMARK   17  A    between atoms: _42  and  _44
REMARK   18  A    between atoms: _44  and  _45
REMARK   19  A    between atoms: _44  and  _47
REMARK   20  A    between atoms: _47  and  _48
REMARK   21  A    between atoms: _50  and  _52
REMARK   22  A    between atoms: _52  and  _53
REMARK   23  A    between atoms: _52  and  _55
REMARK   24  A    between atoms: _55  and  _56
REMARK   25  A    between atoms: _59  and  _61
REMARK   26  A    between atoms: _61  and  _62
REMARK   27  A    between atoms: _61  and  _64
REMARK   28  A    between atoms: _64  and  _65
REMARK   29  A    between atoms: _67  and  _69
REMARK   30  A    between atoms: _69  and  _70
REMARK   31  A    between atoms: _69  and  _72
REMARK   32  A    between atoms: _74  and  _76
REMARK   33  A    between atoms: _76  and  _77
REMARK   34  A    between atoms: _76  and  _79
REMARK   35  A    between atoms: _79  and  _80
REMARK   36  A    between atoms: _83  and  _85
REMARK   37  A    between atoms: _85  and  _86
REMARK   38  A    between atoms: _85  and  _88
REMARK   39  A    between atoms: _88  and  _89
REMARK   40  A    between atoms: _95  and  _97
REMARK   41  A    between atoms: _97  and  _98
REMARK   42  A    between atoms: _97  and  _100
REMARK   43  A    between atoms: _100  and  _101
REMARK   44  A    between atoms: _101  and  _102
REMARK   45  A    between atoms: _102  and  _103
REMARK   46  A    between atoms: _113  and  _114
REMARK   47  A    between atoms: _119  and  _121
REMARK   48  A    between atoms: _121  and  _122
REMARK   49  A    between atoms: _121  and  _124
REMARK   50  A    between atoms: _124  and  _125
REMARK   51  A    between atoms: _125  and  _126
REMARK   52  A    between atoms: _129  and  _131
REMARK   53  A    between atoms: _131  and  _132
REMARK   54  A    between atoms: _135  and  _137
REMARK   55  A    between atoms: _137  and  _138
REMARK   56  A    between atoms: _137  and  _140
REMARK   57  A    between atoms: _143  and  _145
REMARK   58  A    between atoms: _145  and  _146
REMARK   59  A    between atoms: _145  and  _148
REMARK   60  A    between atoms: _148  and  _149
REMARK   61  A    between atoms: _155  and  _157
REMARK   62  A    between atoms: _157  and  _158
REMARK   63  A    between atoms: _157  and  _160
REMARK   64  A    between atoms: _160  and  _161
REMARK   65  A    between atoms: _164  and  _166
REMARK   66  A    between atoms: _166  and  _167
REMARK   67  A    between atoms: _166  and  _169
REMARK   68  A    between atoms: _169  and  _170
REMARK   69  A    between atoms: _176  and  _178
REMARK   70  A    between atoms: _178  and  _179
REMARK   71  A    between atoms: _178  and  _181
REMARK   72  A    between atoms: _181  and  _182
REMARK   73  A    between atoms: _185  and  _187
REMARK   74  A    between atoms: _187  and  _188
REMARK   75  A    between atoms: _187  and  _190
REMARK   76  A    between atoms: _190  and  _191
REMARK   77  A    between atoms: _191  and  _192
REMARK   78  A    between atoms: _197  and  _199
REMARK   79  A    between atoms: _199  and  _200
REMARK   80  A    between atoms: _199  and  _202
REMARK   81  A    between atoms: _202  and  _203
REMARK   82  A    between atoms: _208  and  _210
REMARK   83  A    between atoms: _210  and  _211
REMARK   84  A    between atoms: _210  and  _213
REMARK   85  A    between atoms: _213  and  _214
REMARK   86  A    between atoms: _217  and  _219
REMARK   87  A    between atoms: _219  and  _220
REMARK   88  A    between atoms: _219  and  _222
REMARK   89  A    between atoms: _222  and  _223
REMARK   90  A    between atoms: _228  and  _230
REMARK   91  A    between atoms: _230  and  _231
REMARK   92  A    between atoms: _230  and  _233
REMARK   93  A    between atoms: _233  and  _234
REMARK   94  A    between atoms: _237  and  _239
REMARK   95  A    between atoms: _239  and  _240
REMARK   96  A    between atoms: _239  and  _242
REMARK   97  A    between atoms: _245  and  _247
REMARK   98  A    between atoms: _247  and  _248
REMARK   99  A    between atoms: _247  and  _250
REMARK  100  A    between atoms: _250  and  _251
REMARK  101  A    between atoms: _257  and  _259
REMARK  102  A    between atoms: _259  and  _260
REMARK  103  A    between atoms: _259  and  _262
REMARK  104  A    between atoms: _265  and  _267
REMARK  105  A    between atoms: _267  and  _268
REMARK  106  A    between atoms: _267  and  _270
REMARK  107  A    between atoms: _273  and  _275
REMARK  108  A    between atoms: _275  and  _276
REMARK  109  A    between atoms: _278  and  _280
REMARK  110  A    between atoms: _280  and  _281
REMARK  111  A    between atoms: _280  and  _283
REMARK  112  A    between atoms: _283  and  _284
REMARK  113  A    between atoms: _287  and  _289
REMARK  114  A    between atoms: _289  and  _290
REMARK  115  A    between atoms: _289  and  _292
REMARK  116  A    between atoms: _292  and  _293
REMARK  117  A    between atoms: _295  and  _297
REMARK  118  A    between atoms: _297  and  _298
REMARK  119  A    between atoms: _297  and  _300
REMARK  120  A    between atoms: _300  and  _301
REMARK  121  A    between atoms: _304  and  _306
REMARK  122  A    between atoms: _306  and  _307
REMARK  123  A    between atoms: _310  and  _312
REMARK  124  A    between atoms: _312  and  _313
REMARK  125  A    between atoms: _312  and  _315
REMARK  126  A    between atoms: _318  and  _320
REMARK  127  A    between atoms: _320  and  _321
REMARK  128  A    between atoms: _320  and  _323
REMARK  129  A    between atoms: _323  and  _324
REMARK  130  A    between atoms: _329  and  _330
REMARK  131  A    between atoms: _332  and  _334
REMARK  132  A    between atoms: _334  and  _335
REMARK  133  A    between atoms: _334  and  _337
REMARK  134  A    between atoms: _337  and  _338
REMARK  135  A    between atoms: _344  and  _346
REMARK  136  A    between atoms: _346  and  _347
REMARK  137  A    between atoms: _346  and  _349
REMARK  138  A    between atoms: _349  and  _350
REMARK  139  A    between atoms: _353  and  _355
REMARK  140  A    between atoms: _355  and  _356
REMARK  141  A    between atoms: _355  and  _358
REMARK  142  A    between atoms: _360  and  _362
REMARK  143  A    between atoms: _362  and  _363
REMARK  144  A    between atoms: _362  and  _365
REMARK  145  A    between atoms: _365  and  _366
REMARK  146  A    between atoms: _371  and  _373
REMARK  147  A    between atoms: _373  and  _374
REMARK  148  A    between atoms: _373  and  _376
REMARK  149  A    between atoms: _376  and  _377
REMARK  150  A    between atoms: _380  and  _382
REMARK  151  A    between atoms: _382  and  _383
REMARK  152  A    between atoms: _382  and  _385
REMARK  153  A    between atoms: _385  and  _386
REMARK  154  A    between atoms: _386  and  _387
REMARK  155  A    between atoms: _390  and  _392
REMARK  156  A    between atoms: _392  and  _393
REMARK  157  A    between atoms: _392  and  _395
REMARK  158  A    between atoms: _395  and  _396
REMARK  159  A    between atoms: _399  and  _401
REMARK  160  A    between atoms: _401  and  _402
REMARK  161  A    between atoms: _401  and  _404
REMARK  162  A    between atoms: _407  and  _409
REMARK  163  A    between atoms: _409  and  _410
REMARK  164  A    between atoms: _412  and  _414
REMARK  165  A    between atoms: _414  and  _415
REMARK  166  A    between atoms: _414  and  _417
REMARK  167  A    between atoms: _420  and  _422
REMARK  168  A    between atoms: _422  and  _423
REMARK  169  A    between atoms: _422  and  _425
REMARK  170  A    between atoms: _425  and  _426
REMARK  171  A    between atoms: _431  and  _433
REMARK  172  A    between atoms: _433  and  _434
REMARK  173  A    between atoms: _433  and  _436
REMARK  174  A    between atoms: _436  and  _437
REMARK  175  A    between atoms: _437  and  _438
REMARK  176  A    between atoms: _443  and  _445
REMARK  177  A    between atoms: _445  and  _446
REMARK  178  A    between atoms: _445  and  _448
REMARK  179  A    between atoms: _448  and  _449
REMARK  180  A    between atoms: _454  and  _455
REMARK  181  A    between atoms: _457  and  _459
REMARK  182  A    between atoms: _459  and  _460
REMARK  183  A    between atoms: _459  and  _462
REMARK  184  A    between atoms: _462  and  _463
REMARK  185  A    between atoms: _465  and  _467
REMARK  186  A    between atoms: _467  and  _468
REMARK  187  A    between atoms: _467  and  _470
REMARK  188  A    between atoms: _470  and  _471
REMARK  189  A    between atoms: _474  and  _476
REMARK  190  A    between atoms: _476  and  _477
REMARK  191  A    between atoms: _476  and  _479
REMARK  192  A    between atoms: _479  and  _480
REMARK  193  A    between atoms: _480  and  _481
REMARK  194  A    between atoms: _484  and  _486
REMARK  195  A    between atoms: _486  and  _487
REMARK  196  A    between atoms: _486  and  _489
REMARK  197  A    between atoms: _489  and  _490
REMARK  198  A    between atoms: _496  and  _498
REMARK  199  A    between atoms: _498  and  _499
REMARK                            x       y       z     vdW  Elec       q    Type
REMARK                         _______ _______ _______ _____ _____    ______ ____
ROOT
ATOM      1  C   GLN A   2      -3.133  39.502 -42.184  0.00  0.00    +0.241 C 
ATOM      2  N   ASN A   3      -3.878  40.092 -41.249  0.00  0.00    -0.297 N 
ATOM      3  H   ASN A   3      -3.654  39.933 -40.246  0.00  0.00    +0.150 HD
ATOM      4  O   GLN A   2      -3.335  39.642 -43.387  0.00  0.00    -0.273 OA
ENDROOT
BRANCH   1   5
ATOM      5  CA  GLN A   2      -1.973  38.641 -41.684  0.00  0.00    +0.149 C 
BRANCH   5   8
ATOM      6  C   THR A   1      -1.122  39.391 -39.584  0.00  0.00    +0.241 C 
ATOM      7  O   THR A   1      -0.264  40.054 -40.166  0.00  0.00    -0.274 OA
ATOM      8  N   GLN A   2      -1.989  38.622 -40.234  0.00  0.00    -0.297 N 
ATOM      9  H   GLN A   2      -2.662  38.022 -39.716  0.00  0.00    +0.150 HD
BRANCH   6  10
ATOM     10  CA  THR A   1      -1.215  39.389 -38.073  0.00  0.00    +0.172 C 
BRANCH  10  11
ATOM     11  CB  THR A   1      -2.079  40.604 -37.632  0.00  0.00    +0.135 C 
ATOM     12  CG2 THR A   1      -1.435  41.925 -38.058  0.00  0.00    +0.034 C 
BRANCH  11  13
ATOM     13  OG1 THR A   1      -3.374  40.512 -38.243  0.00  0.00    -0.383 OA
ATOM     14  HG1 THR A   1      -3.925  41.285 -37.963  0.00  0.00    +0.210 HD
ENDBRANCH  11  13
ENDBRANCH  10  11
BRANCH  10  15
ATOM     15  N   THR A   1       0.096  39.414 -37.444  0.00  0.00    -0.236 NA
ATOM     16  H   THR A   1       0.775  40.162 -37.692  0.00  0.00    +0.142 HD
ENDBRANCH  10  15
ENDBRANCH   6  10
ENDBRANCH   5   8
BRANCH   5  17
ATOM     17  CB  GLN A   2      -2.042  37.228 -42.274  0.00  0.00    +0.039 C 
BRANCH  17  18
ATOM     18  CG  GLN A   2      -3.238  36.396 -41.887  0.00  0.00    +0.087 C 
BRANCH  18  19
ATOM     19  CD  GLN A   2      -3.258  35.073 -42.634  0.00  0.00    +0.219 C 
ATOM     20  NE2 GLN A   2      -3.063  33.981 -41.907  0.00  0.00    -0.329 N 
ATOM     21 HE21 GLN A   2      -2.917  34.059 -40.880  0.00  0.00    +0.145 HD
ATOM     22 HE22 GLN A   2      -3.056  33.047 -42.364  0.00  0.00    +0.145 HD
ATOM     23  OE1 GLN A   2      -3.436  35.036 -43.858  0.00  0.00    -0.275 OA
ENDBRANCH  18  19
ENDBRANCH  17  18
ENDBRANCH   5  17
ENDBRANCH   1   5
BRANCH   2  24
ATOM     24  CA  ASN A   3      -5.008  40.961 -41.602  0.00  0.00    +0.158 C 
BRANCH  24  25
ATOM     25  C   ASN A   3      -4.516  42.340 -42.023  0.00  0.00    +0.241 C 
ATOM     26  O   ASN A   3      -3.453  42.798 -41.588  0.00  0.00    -0.273 OA
ATOM     27  N   ILE A   4      -5.288  43.004 -42.880  0.00  0.00    -0.298 N 
ATOM     28  H   ILE A   4      -6.164  42.565 -43.229  0.00  0.00    +0.150 HD
BRANCH  27  29
ATOM     29  CA  ILE A   4      -4.919  44.341 -43.335  0.00  0.00    +0.137 C 
BRANCH  29  30
ATOM     30  C   ILE A   4      -5.929  45.372 -42.834  0.00  0.00    +0.227 C 
ATOM     31  O   ILE A   4      -6.007  46.484 -43.363  0.00  0.00    -0.286 OA
ENDBRANCH  29  30
BRANCH  29  32
ATOM     32  CB  ILE A   4      -4.844  44.423 -44.877  0.00  0.00    +0.026 C 
ATOM     33  CG2 ILE A   4      -3.692  43.561 -45.390  0.00  0.00    +0.002 C 
BRANCH  32  34
ATOM     34  CG1 ILE A   4      -6.180  44.004 -45.489  0.00  0.00    +0.002 C 
ATOM     35  CD1 ILE A   4      -6.254  44.225 -46.991  0.00  0.00    +0.000 C 
ENDBRANCH  32  34
ENDBRANCH  29  32
ENDBRANCH  27  29
ENDBRANCH  24  25
BRANCH  24  36
ATOM     36  CB  ASN A   3      -5.956  41.127 -40.412  0.00  0.00    +0.114 C 
BRANCH  36  37
ATOM     37  CG  ASN A   3      -6.582  39.826 -39.984  0.00  0.00    +0.222 C 
ATOM     38  ND2 ASN A   3      -7.136  39.804 -38.777  0.00  0.00    -0.329 N 
ATOM     39 HD21 ASN A   3      -7.109  40.653 -38.177  0.00  0.00    +0.145 HD
ATOM     40 HD22 ASN A   3      -7.597  38.938 -38.432  0.00  0.00    +0.145 HD
ATOM     41  OD1 ASN A   3      -6.584  38.852 -40.737  0.00  0.00    -0.275 OA
ENDBRANCH  36  37
ENDBRANCH  24  36
ENDBRANCH   2  24
TORSDOF 17
REMARK  Name = ../refined-set-2016/1szd/1szd_pocket.pdb
REMARK  199 active torsions:
REMARK  status: ('A' for Active; 'I' for Inactive)
REMARK    1  A    between atoms: _1  and  _3
REMARK    2  A    between atoms: _3  and  _4
REMARK    3  A    between atoms: _3  and  _6
REMARK    4  A    between atoms: _9  and  _11
REMARK    5  A    between atoms: _11  and  _12
REMARK    6  A    between atoms: _11  and  _14
REMARK    7  A    between atoms: _17  and  _19
REMARK    8  A    between atoms: _19  and  _20
REMARK    9  A    between atoms: _22  and  _24
REMARK   10  A    between atoms: _24  and  _25
REMARK   11  A    between atoms: _28  and  _30
REMARK   12  A    between atoms: _30  and  _31
REMARK   13  A    between atoms: _33  and  _35
REMARK   14  A    between atoms: _35  and  _36
REMARK   15  A    between atoms: _35  and  _38
REMARK   16  A    between atoms: _38  and  _39
REMARK   17  A    between atoms: _42  and  _44
REMARK   18  A    between atoms: _44  and  _45
REMARK   19  A    between atoms: _44  and  _47
REMARK   20  A    between atoms: _47  and  _48
REMARK   21  A    between atoms: _50  and  _52
REMARK   22  A    between atoms: _52  and  _53
REMARK   23  A    between atoms: _52  and  _55
REMARK   24  A    between atoms: _55  and  _56
REMARK   25  A    between atoms: _59  and  _61
REMARK   26  A    between atoms: _61  and  _62
REMARK   27  A    between atoms: _61  and  _64
REMARK   28  A    between atoms: _64  and  _65
REMARK   29  A    between atoms: _67  and  _69
REMARK   30  A    between atoms: _69  and  _70
REMARK   31  A    between atoms: _69  and  _72
REMARK   32  A    between atoms: _74  and  _76
REMARK   33  A    between atoms: _76  and  _77
REMARK   34  A    between atoms: _76  and  _79
REMARK   35  A    between atoms: _79  and  _80
REMARK   36  A    between atoms: _83  and  _85
REMARK   37  A    between atoms: _85  and  _86
REMARK   38  A    between atoms: _85  and  _88
REMARK   39  A    between atoms: _88  and  _89
REMARK   40  A    between atoms: _95  and  _97
REMARK   41  A    between atoms: _97  and  _98
REMARK   42  A    between atoms: _97  and  _100
REMARK   43  A    between atoms: _100  and  _101
REMARK   44  A    between atoms: _101  and  _102
REMARK   45  A    between atoms: _102  and  _103
REMARK   46  A    between atoms: _113  and  _114
REMARK   47  A    between atoms: _119  and  _121
REMARK   48  A    between atoms: _121  and  _122
REMARK   49  A    between atoms: _121  and  _124
REMARK   50  A    between atoms: _124  and  _125
REMARK   51  A    between atoms: _125  and  _126
REMARK   52  A    between atoms: _129  and  _131
REMARK   53  A    between atoms: _131  and  _132
REMARK   54  A    between atoms: _135  and  _137
REMARK   55  A    between atoms: _137  and  _138
REMARK   56  A    between atoms: _137  and  _140
REMARK   57  A    between atoms: _143  and  _145
REMARK   58  A    between atoms: _145  and  _146
REMARK   59  A    between atoms: _145  and  _148
REMARK   60  A    between atoms: _148  and  _149
REMARK   61  A    between atoms: _155  and  _157
REMARK   62  A    between atoms: _157  and  _158
REMARK   63  A    between atoms: _157  and  _160
REMARK   64  A    between atoms: _160  and  _161
REMARK   65  A    between atoms: _164  and  _166
REMARK   66  A    between atoms: _166  and  _167
REMARK   67  A    between atoms: _166  and  _169
REMARK   68  A    between atoms: _169  and  _170
REMARK   69  A    between atoms: _176  and  _178
REMARK   70  A    between atoms: _178  and  _179
REMARK   71  A    between atoms: _178  and  _181
REMARK   72  A    between atoms: _181  and  _182
REMARK   73  A    between atoms: _185  and  _187
REMARK   74  A    between atoms: _187  and  _188
REMARK   75  A    between atoms: _187  and  _190
REMARK   76  A    between atoms: _190  and  _191
REMARK   77  A    between atoms: _191  and  _192
REMARK   78  A    between atoms: _197  and  _199
REMARK   79  A    between atoms: _199  and  _200
REMARK   80  A    between atoms: _199  and  _202
REMARK   81  A    between atoms: _202  and  _203
REMARK   82  A    between atoms: _208  and  _210
REMARK   83  A    between atoms: _210  and  _211
REMARK   84  A    between atoms: _210  and  _213
REMARK   85  A    between atoms: _213  and  _214
REMARK   86  A    between atoms: _217  and  _219
REMARK   87  A    between atoms: _219  and  _220
REMARK   88  A    between atoms: _219  and  _222
REMARK   89  A    between atoms: _222  and  _223
REMARK   90  A    between atoms: _228  and  _230
REMARK   91  A    between atoms: _230  and  _231
REMARK   92  A    between atoms: _230  and  _233
REMARK   93  A    between atoms: _233  and  _234
REMARK   94  A    between atoms: _237  and  _239
REMARK   95  A    between atoms: _239  and  _240
REMARK   96  A    between atoms: _239  and  _242
REMARK   97  A    between atoms: _245  and  _247
REMARK   98  A    between atoms: _247  and  _248
REMARK   99  A    between atoms: _247  and  _250
REMARK  100  A    between atoms: _250  and  _251
REMARK  101  A    between atoms: _257  and  _259
REMARK  102  A    between atoms: _259  and  _260
REMARK  103  A    between atoms: _259  and  _262
REMARK  104  A    between atoms: _265  and  _267
REMARK  105  A    between atoms: _267  and  _268
REMARK  106  A    between atoms: _267  and  _270
REMARK  107  A    between atoms: _273  and  _275
REMARK  108  A    between atoms: _275  and  _276
REMARK  109  A    between atoms: _278  and  _280
REMARK  110  A    between atoms: _280  and  _281
REMARK  111  A    between atoms: _280  and  _283
REMARK  112  A    between atoms: _283  and  _284
REMARK  113  A    between atoms: _287  and  _289
REMARK  114  A    between atoms: _289  and  _290
REMARK  115  A    between atoms: _289  and  _292
REMARK  116  A    between atoms: _292  and  _293
REMARK  117  A    between atoms: _295  and  _297
REMARK  118  A    between atoms: _297  and  _298
REMARK  119  A    between atoms: _297  and  _300
REMARK  120  A    between atoms: _300  and  _301
REMARK  121  A    between atoms: _304  and  _306
REMARK  122  A    between atoms: _306  and  _307
REMARK  123  A    between atoms: _310  and  _312
REMARK  124  A    between atoms: _312  and  _313
REMARK  125  A    between atoms: _312  and  _315
REMARK  126  A    between atoms: _318  and  _320
REMARK  127  A    between atoms: _320  and  _321
REMARK  128  A    between atoms: _320  and  _323
REMARK  129  A    between atoms: _323  and  _324
REMARK  130  A    between atoms: _329  and  _330
REMARK  131  A    between atoms: _332  and  _334
REMARK  132  A    between atoms: _334  and  _335
REMARK  133  A    between atoms: _334  and  _337
REMARK  134  A    between atoms: _337  and  _338
REMARK  135  A    between atoms: _344  and  _346
REMARK  136  A    between atoms: _346  and  _347
REMARK  137  A    between atoms: _346  and  _349
REMARK  138  A    between atoms: _349  and  _350
REMARK  139  A    between atoms: _353  and  _355
REMARK  140  A    between atoms: _355  and  _356
REMARK  141  A    between atoms: _355  and  _358
REMARK  142  A    between atoms: _360  and  _362
REMARK  143  A    between atoms: _362  and  _363
REMARK  144  A    between atoms: _362  and  _365
REMARK  145  A    between atoms: _365  and  _366
REMARK  146  A    between atoms: _371  and  _373
REMARK  147  A    between atoms: _373  and  _374
REMARK  148  A    between atoms: _373  and  _376
REMARK  149  A    between atoms: _376  and  _377
REMARK  150  A    between atoms: _380  and  _382
REMARK  151  A    between atoms: _382  and  _383
REMARK  152  A    between atoms: _382  and  _385
REMARK  153  A    between atoms: _385  and  _386
REMARK  154  A    between atoms: _386  and  _387
REMARK  155  A    between atoms: _390  and  _392
REMARK  156  A    between atoms: _392  and  _393
REMARK  157  A    between atoms: _392  and  _395
REMARK  158  A    between atoms: _395  and  _396
REMARK  159  A    between atoms: _399  and  _401
REMARK  160  A    between atoms: _401  and  _402
REMARK  161  A    between atoms: _401  and  _404
REMARK  162  A    between atoms: _407  and  _409
REMARK  163  A    between atoms: _409  and  _410
REMARK  164  A    between atoms: _412  and  _414
REMARK  165  A    between atoms: _414  and  _415
REMARK  166  A    between atoms: _414  and  _417
REMARK  167  A    between atoms: _420  and  _422
REMARK  168  A    between atoms: _422  and  _423
REMARK  169  A    between atoms: _422  and  _425
REMARK  170  A    between atoms: _425  and  _426
REMARK  171  A    between atoms: _431  and  _433
REMARK  172  A    between atoms: _433  and  _434
REMARK  173  A    between atoms: _433  and  _436
REMARK  174  A    between atoms: _436  and  _437
REMARK  175  A    between atoms: _437  and  _438
REMARK  176  A    between atoms: _443  and  _445
REMARK  177  A    between atoms: _445  and  _446
REMARK  178  A    between atoms: _445  and  _448
REMARK  179  A    between atoms: _448  and  _449
REMARK  180  A    between atoms: _454  and  _455
REMARK  181  A    between atoms: _457  and  _459
REMARK  182  A    between atoms: _459  and  _460
REMARK  183  A    between atoms: _459  and  _462
REMARK  184  A    between atoms: _462  and  _463
REMARK  185  A    between atoms: _465  and  _467
REMARK  186  A    between atoms: _467  and  _468
REMARK  187  A    between atoms: _467  and  _470
REMARK  188  A    between atoms: _470  and  _471
REMARK  189  A    between atoms: _474  and  _476
REMARK  190  A    between atoms: _476  and  _477
REMARK  191  A    between atoms: _476  and  _479
REMARK  192  A    between atoms: _479  and  _480
REMARK  193  A    between atoms: _480  and  _481
REMARK  194  A    between atoms: _484  and  _486
REMARK  195  A    between atoms: _486  and  _487
REMARK  196  A    between atoms: _486  and  _489
REMARK  197  A    between atoms: _489  and  _490
REMARK  198  A    between atoms: _496  and  _498
REMARK  199  A    between atoms: _498  and  _499
REMARK                            x       y       z     vdW  Elec       q    Type
REMARK                         _______ _______ _______ _____ _____    ______ ____
ROOT
ATOM      1  CB  HIS A   1      -0.511  41.010 -45.426  0.00  0.00    +0.072 C 
ENDROOT
BRANCH   1   2
ATOM      2  CG  HIS A   1      -0.266  39.539 -45.567  0.00  0.00    +0.082 A 
ATOM      3  ND1 HIS A   1      -1.269  38.599 -45.470  0.00  0.00    -0.227 NA
ATOM      4  CE1 HIS A   1      -0.756  37.392 -45.636  0.00  0.00    +0.199 A 
ATOM      5  NE2 HIS A   1       0.543  37.515 -45.840  0.00  0.00    -0.221 NA
ATOM      6  CD2 HIS A   1       0.875  38.847 -45.804  0.00  0.00    +0.115 A 
ENDBRANCH   1   2
BRANCH   1   7
ATOM      7  CA  HIS A   1       0.760  41.800 -45.127  0.00  0.00    +0.139 C 
BRANCH   7   8
ATOM      8  N   HIS A   1       1.200  41.482 -43.785  0.00  0.00    -0.239 NA
ATOM      9  H   HIS A   1       0.552  41.602 -42.981  0.00  0.00    +0.142 HD
ENDBRANCH   7   8
BRANCH   7  10
ATOM     10  C   HIS A   1       0.575  43.288 -45.381  0.00  0.00    +0.224 C 
ATOM     11  O   HIS A   1      -0.160  43.684 -46.285  0.00  0.00    -0.287 OA
ENDBRANCH   7  10
ENDBRANCH   1   7
TORSDOF 4
REMARK  Name = ../refined-set-2016/1szd/1szd_pocket.pdb
REMARK  199 active torsions:
REMARK  status: ('A' for Active; 'I' for Inactive)
REMARK    1  A    between atoms: _1  and  _3
REMARK    2  A    between atoms: _3  and  _4
REMARK    3  A    between atoms: _3  and  _6
REMARK    4  A    between atoms: _9  and  _11
REMARK    5  A    between atoms: _11  and  _12
REMARK    6  A    between atoms: _11  and  _14
REMARK    7  A    between atoms: _17  and  _19
REMARK    8  A    between atoms: _19  and  _20
REMARK    9  A    between atoms: _22  and  _24
REMARK   10  A    between atoms: _24  and  _25
REMARK   11  A    between atoms: _28  and  _30
REMARK   12  A    between atoms: _30  and  _31
REMARK   13  A    between atoms: _33  and  _35
REMARK   14  A    between atoms: _35  and  _36
REMARK   15  A    between atoms: _35  and  _38
REMARK   16  A    between atoms: _38  and  _39
REMARK   17  A    between atoms: _42  and  _44
REMARK   18  A    between atoms: _44  and  _45
REMARK   19  A    between atoms: _44  and  _47
REMARK   20  A    between atoms: _47  and  _48
REMARK   21  A    between atoms: _50  and  _52
REMARK   22  A    between atoms: _52  and  _53
REMARK   23  A    between atoms: _52  and  _55
REMARK   24  A    between atoms: _55  and  _56
REMARK   25  A    between atoms: _59  and  _61
REMARK   26  A    between atoms: _61  and  _62
REMARK   27  A    between atoms: _61  and  _64
REMARK   28  A    between atoms: _64  and  _65
REMARK   29  A    between atoms: _67  and  _69
REMARK   30  A    between atoms: _69  and  _70
REMARK   31  A    between atoms: _69  and  _72
REMARK   32  A    between atoms: _74  and  _76
REMARK   33  A    between atoms: _76  and  _77
REMARK   34  A    between atoms: _76  and  _79
REMARK   35  A    between atoms: _79  and  _80
REMARK   36  A    between atoms: _83  and  _85
REMARK   37  A    between atoms: _85  and  _86
REMARK   38  A    between atoms: _85  and  _88
REMARK   39  A    between atoms: _88  and  _89
REMARK   40  A    between atoms: _95  and  _97
REMARK   41  A    between atoms: _97  and  _98
REMARK   42  A    between atoms: _97  and  _100
REMARK   43  A    between atoms: _100  and  _101
REMARK   44  A    between atoms: _101  and  _102
REMARK   45  A    between atoms: _102  and  _103
REMARK   46  A    between atoms: _113  and  _114
REMARK   47  A    between atoms: _119  and  _121
REMARK   48  A    between atoms: _121  and  _122
REMARK   49  A    between atoms: _121  and  _124
REMARK   50  A    between atoms: _124  and  _125
REMARK   51  A    between atoms: _125  and  _126
REMARK   52  A    between atoms: _129  and  _131
REMARK   53  A    between atoms: _131  and  _132
REMARK   54  A    between atoms: _135  and  _137
REMARK   55  A    between atoms: _137  and  _138
REMARK   56  A    between atoms: _137  and  _140
REMARK   57  A    between atoms: _143  and  _145
REMARK   58  A    between atoms: _145  and  _146
REMARK   59  A    between atoms: _145  and  _148
REMARK   60  A    between atoms: _148  and  _149
REMARK   61  A    between atoms: _155  and  _157
REMARK   62  A    between atoms: _157  and  _158
REMARK   63  A    between atoms: _157  and  _160
REMARK   64  A    between atoms: _160  and  _161
REMARK   65  A    between atoms: _164  and  _166
REMARK   66  A    between atoms: _166  and  _167
REMARK   67  A    between atoms: _166  and  _169
REMARK   68  A    between atoms: _169  and  _170
REMARK   69  A    between atoms: _176  and  _178
REMARK   70  A    between atoms: _178  and  _179
REMARK   71  A    between atoms: _178  and  _181
REMARK   72  A    between atoms: _181  and  _182
REMARK   73  A    between atoms: _185  and  _187
REMARK   74  A    between atoms: _187  and  _188
REMARK   75  A    between atoms: _187  and  _190
REMARK   76  A    between atoms: _190  and  _191
REMARK   77  A    between atoms: _191  and  _192
REMARK   78  A    between atoms: _197  and  _199
REMARK   79  A    between atoms: _199  and  _200
REMARK   80  A    between atoms: _199  and  _202
REMARK   81  A    between atoms: _202  and  _203
REMARK   82  A    between atoms: _208  and  _210
REMARK   83  A    between atoms: _210  and  _211
REMARK   84  A    between atoms: _210  and  _213
REMARK   85  A    between atoms: _213  and  _214
REMARK   86  A    between atoms: _217  and  _219
REMARK   87  A    between atoms: _219  and  _220
REMARK   88  A    between atoms: _219  and  _222
REMARK   89  A    between atoms: _222  and  _223
REMARK   90  A    between atoms: _228  and  _230
REMARK   91  A    between atoms: _230  and  _231
REMARK   92  A    between atoms: _230  and  _233
REMARK   93  A    between atoms: _233  and  _234
REMARK   94  A    between atoms: _237  and  _239
REMARK   95  A    between atoms: _239  and  _240
REMARK   96  A    between atoms: _239  and  _242
REMARK   97  A    between atoms: _245  and  _247
REMARK   98  A    between atoms: _247  and  _248
REMARK   99  A    between atoms: _247  and  _250
REMARK  100  A    between atoms: _250  and  _251
REMARK  101  A    between atoms: _257  and  _259
REMARK  102  A    between atoms: _259  and  _260
REMARK  103  A    between atoms: _259  and  _262
REMARK  104  A    between atoms: _265  and  _267
REMARK  105  A    between atoms: _267  and  _268
REMARK  106  A    between atoms: _267  and  _270
REMARK  107  A    between atoms: _273  and  _275
REMARK  108  A    between atoms: _275  and  _276
REMARK  109  A    between atoms: _278  and  _280
REMARK  110  A    between atoms: _280  and  _281
REMARK  111  A    between atoms: _280  and  _283
REMARK  112  A    between atoms: _283  and  _284
REMARK  113  A    between atoms: _287  and  _289
REMARK  114  A    between atoms: _289  and  _290
REMARK  115  A    between atoms: _289  and  _292
REMARK  116  A    between atoms: _292  and  _293
REMARK  117  A    between atoms: _295  and  _297
REMARK  118  A    between atoms: _297  and  _298
REMARK  119  A    between atoms: _297  and  _300
REMARK  120  A    between atoms: _300  and  _301
REMARK  121  A    between atoms: _304  and  _306
REMARK  122  A    between atoms: _306  and  _307
REMARK  123  A    between atoms: _310  and  _312
REMARK  124  A    between atoms: _312  and  _313
REMARK  125  A    between atoms: _312  and  _315
REMARK  126  A    between atoms: _318  and  _320
REMARK  127  A    between atoms: _320  and  _321
REMARK  128  A    between atoms: _320  and  _323
REMARK  129  A    between atoms: _323  and  _324
REMARK  130  A    between atoms: _329  and  _330
REMARK  131  A    between atoms: _332  and  _334
REMARK  132  A    between atoms: _334  and  _335
REMARK  133  A    between atoms: _334  and  _337
REMARK  134  A    between atoms: _337  and  _338
REMARK  135  A    between atoms: _344  and  _346
REMARK  136  A    between atoms: _346  and  _347
REMARK  137  A    between atoms: _346  and  _349
REMARK  138  A    between atoms: _349  and  _350
REMARK  139  A    between atoms: _353  and  _355
REMARK  140  A    between atoms: _355  and  _356
REMARK  141  A    between atoms: _355  and  _358
REMARK  142  A    between atoms: _360  and  _362
REMARK  143  A    between atoms: _362  and  _363
REMARK  144  A    between atoms: _362  and  _365
REMARK  145  A    between atoms: _365  and  _366
REMARK  146  A    between atoms: _371  and  _373
REMARK  147  A    between atoms: _373  and  _374
REMARK  148  A    between atoms: _373  and  _376
REMARK  149  A    between atoms: _376  and  _377
REMARK  150  A    between atoms: _380  and  _382
REMARK  151  A    between atoms: _382  and  _383
REMARK  152  A    between atoms: _382  and  _385
REMARK  153  A    between atoms: _385  and  _386
REMARK  154  A    between atoms: _386  and  _387
REMARK  155  A    between atoms: _390  and  _392
REMARK  156  A    between atoms: _392  and  _393
REMARK  157  A    between atoms: _392  and  _395
REMARK  158  A    between atoms: _395  and  _396
REMARK  159  A    between atoms: _399  and  _401
REMARK  160  A    between atoms: _401  and  _402
REMARK  161  A    between atoms: _401  and  _404
REMARK  162  A    between atoms: _407  and  _409
REMARK  163  A    between atoms: _409  and  _410
REMARK  164  A    between atoms: _412  and  _414
REMARK  165  A    between atoms: _414  and  _415
REMARK  166  A    between atoms: _414  and  _417
REMARK  167  A    between atoms: _420  and  _422
REMARK  168  A    between atoms: _422  and  _423
REMARK  169  A    between atoms: _422  and  _425
REMARK  170  A    between atoms: _425  and  _426
REMARK  171  A    between atoms: _431  and  _433
REMARK  172  A    between atoms: _433  and  _434
REMARK  173  A    between atoms: _433  and  _436
REMARK  174  A    between atoms: _436  and  _437
REMARK  175  A    between atoms: _437  and  _438
REMARK  176  A    between atoms: _443  and  _445
REMARK  177  A    between atoms: _445  and  _446
REMARK  178  A    between atoms: _445  and  _448
REMARK  179  A    between atoms: _448  and  _449
REMARK  180  A    between atoms: _454  and  _455
REMARK  181  A    between atoms: _457  and  _459
REMARK  182  A    between atoms: _459  and  _460
REMARK  183  A    between atoms: _459  and  _462
REMARK  184  A    between atoms: _462  and  _463
REMARK  185  A    between atoms: _465  and  _467
REMARK  186  A    between atoms: _467  and  _468
REMARK  187  A    between atoms: _467  and  _470
REMARK  188  A    between atoms: _470  and  _471
REMARK  189  A    between atoms: _474  and  _476
REMARK  190  A    between atoms: _476  and  _477
REMARK  191  A    between atoms: _476  and  _479
REMARK  192  A    between atoms: _479  and  _480
REMARK  193  A    between atoms: _480  and  _481
REMARK  194  A    between atoms: _484  and  _486
REMARK  195  A    between atoms: _486  and  _487
REMARK  196  A    between atoms: _486  and  _489
REMARK  197  A    between atoms: _489  and  _490
REMARK  198  A    between atoms: _496  and  _498
REMARK  199  A    between atoms: _498  and  _499
REMARK                            x       y       z     vdW  Elec       q    Type
REMARK                         _______ _______ _______ _____ _____    ______ ____
ROOT
ATOM      1  C   ILE A   1       0.189  45.204 -49.546  0.00  0.00    +0.238 C 
ATOM      2  N   VAL A   2       0.513  44.052 -48.969  0.00  0.00    -0.298 N 
ATOM      3  H   VAL A   2       0.245  43.880 -47.979  0.00  0.00    +0.150 HD
ATOM      4  O   ILE A   1       0.486  45.470 -50.711  0.00  0.00    -0.274 OA
ENDROOT
BRANCH   1   5
ATOM      5  CA  ILE A   1      -0.586  46.210 -48.702  0.00  0.00    +0.145 C 
BRANCH   5   6
ATOM      6  N   ILE A   1      -0.037  47.530 -48.992  0.00  0.00    -0.238 NA
ATOM      7  H   ILE A   1      -0.405  48.044 -49.818  0.00  0.00    +0.142 HD
ENDBRANCH   5   6
BRANCH   5   8
ATOM      8  CB  ILE A   1      -2.074  46.113 -49.120  0.00  0.00    +0.025 C 
ATOM      9  CG2 ILE A   1      -2.568  44.669 -48.986  0.00  0.00    +0.002 C 
BRANCH   8  10
ATOM     10  CG1 ILE A   1      -2.914  47.068 -48.277  0.00  0.00    +0.002 C 
ATOM     11  CD1 ILE A   1      -2.854  46.776 -46.800  0.00  0.00    +0.000 C 
ENDBRANCH   8  10
ENDBRANCH   5   8
ENDBRANCH   1   5
BRANCH   2  12
ATOM     12  CA  VAL A   2       1.239  43.027 -49.705  0.00  0.00    +0.137 C 
BRANCH  12  13
ATOM     13  CB  VAL A   2       1.951  42.043 -48.749  0.00  0.00    +0.026 C 
ATOM     14  CG2 VAL A   2       2.907  42.800 -47.832  0.00  0.00    +0.002 C 
ATOM     15  CG1 VAL A   2       2.702  40.996 -49.552  0.00  0.00    +0.002 C 
ENDBRANCH  12  13
BRANCH  12  16
ATOM     16  C   VAL A   2       0.275  42.237 -50.592  0.00  0.00    +0.227 C 
ATOM     17  O   VAL A   2      -0.656  41.607 -50.100  0.00  0.00    -0.286 OA
ENDBRANCH  12  16
ENDBRANCH   2  12
TORSDOF 7
REMARK  Name = ../refined-set-2016/1szd/1szd_pocket.pdb
REMARK  199 active torsions:
REMARK  status: ('A' for Active; 'I' for Inactive)
REMARK    1  A    between atoms: _1  and  _3
REMARK    2  A    between atoms: _3  and  _4
REMARK    3  A    between atoms: _3  and  _6
REMARK    4  A    between atoms: _9  and  _11
REMARK    5  A    between atoms: _11  and  _12
REMARK    6  A    between atoms: _11  and  _14
REMARK    7  A    between atoms: _17  and  _19
REMARK    8  A    between atoms: _19  and  _20
REMARK    9  A    between atoms: _22  and  _24
REMARK   10  A    between atoms: _24  and  _25
REMARK   11  A    between atoms: _28  and  _30
REMARK   12  A    between atoms: _30  and  _31
REMARK   13  A    between atoms: _33  and  _35
REMARK   14  A    between atoms: _35  and  _36
REMARK   15  A    between atoms: _35  and  _38
REMARK   16  A    between atoms: _38  and  _39
REMARK   17  A    between atoms: _42  and  _44
REMARK   18  A    between atoms: _44  and  _45
REMARK   19  A    between atoms: _44  and  _47
REMARK   20  A    between atoms: _47  and  _48
REMARK   21  A    between atoms: _50  and  _52
REMARK   22  A    between atoms: _52  and  _53
REMARK   23  A    between atoms: _52  and  _55
REMARK   24  A    between atoms: _55  and  _56
REMARK   25  A    between atoms: _59  and  _61
REMARK   26  A    between atoms: _61  and  _62
REMARK   27  A    between atoms: _61  and  _64
REMARK   28  A    between atoms: _64  and  _65
REMARK   29  A    between atoms: _67  and  _69
REMARK   30  A    between atoms: _69  and  _70
REMARK   31  A    between atoms: _69  and  _72
REMARK   32  A    between atoms: _74  and  _76
REMARK   33  A    between atoms: _76  and  _77
REMARK   34  A    between atoms: _76  and  _79
REMARK   35  A    between atoms: _79  and  _80
REMARK   36  A    between atoms: _83  and  _85
REMARK   37  A    between atoms: _85  and  _86
REMARK   38  A    between atoms: _85  and  _88
REMARK   39  A    between atoms: _88  and  _89
REMARK   40  A    between atoms: _95  and  _97
REMARK   41  A    between atoms: _97  and  _98
REMARK   42  A    between atoms: _97  and  _100
REMARK   43  A    between atoms: _100  and  _101
REMARK   44  A    between atoms: _101  and  _102
REMARK   45  A    between atoms: _102  and  _103
REMARK   46  A    between atoms: _113  and  _114
REMARK   47  A    between atoms: _119  and  _121
REMARK   48  A    between atoms: _121  and  _122
REMARK   49  A    between atoms: _121  and  _124
REMARK   50  A    between atoms: _124  and  _125
REMARK   51  A    between atoms: _125  and  _126
REMARK   52  A    between atoms: _129  and  _131
REMARK   53  A    between atoms: _131  and  _132
REMARK   54  A    between atoms: _135  and  _137
REMARK   55  A    between atoms: _137  and  _138
REMARK   56  A    between atoms: _137  and  _140
REMARK   57  A    between atoms: _143  and  _145
REMARK   58  A    between atoms: _145  and  _146
REMARK   59  A    between atoms: _145  and  _148
REMARK   60  A    between atoms: _148  and  _149
REMARK   61  A    between atoms: _155  and  _157
REMARK   62  A    between atoms: _157  and  _158
REMARK   63  A    between atoms: _157  and  _160
REMARK   64  A    between atoms: _160  and  _161
REMARK   65  A    between atoms: _164  and  _166
REMARK   66  A    between atoms: _166  and  _167
REMARK   67  A    between atoms: _166  and  _169
REMARK   68  A    between atoms: _169  and  _170
REMARK   69  A    between atoms: _176  and  _178
REMARK   70  A    between atoms: _178  and  _179
REMARK   71  A    between atoms: _178  and  _181
REMARK   72  A    between atoms: _181  and  _182
REMARK   73  A    between atoms: _185  and  _187
REMARK   74  A    between atoms: _187  and  _188
REMARK   75  A    between atoms: _187  and  _190
REMARK   76  A    between atoms: _190  and  _191
REMARK   77  A    between atoms: _191  and  _192
REMARK   78  A    between atoms: _197  and  _199
REMARK   79  A    between atoms: _199  and  _200
REMARK   80  A    between atoms: _199  and  _202
REMARK   81  A    between atoms: _202  and  _203
REMARK   82  A    between atoms: _208  and  _210
REMARK   83  A    between atoms: _210  and  _211
REMARK   84  A    between atoms: _210  and  _213
REMARK   85  A    between atoms: _213  and  _214
REMARK   86  A    between atoms: _217  and  _219
REMARK   87  A    between atoms: _219  and  _220
REMARK   88  A    between atoms: _219  and  _222
REMARK   89  A    between atoms: _222  and  _223
REMARK   90  A    between atoms: _228  and  _230
REMARK   91  A    between atoms: _230  and  _231
REMARK   92  A    between atoms: _230  and  _233
REMARK   93  A    between atoms: _233  and  _234
REMARK   94  A    between atoms: _237  and  _239
REMARK   95  A    between atoms: _239  and  _240
REMARK   96  A    between atoms: _239  and  _242
REMARK   97  A    between atoms: _245  and  _247
REMARK   98  A    between atoms: _247  and  _248
REMARK   99  A    between atoms: _247  and  _250
REMARK  100  A    between atoms: _250  and  _251
REMARK  101  A    between atoms: _257  and  _259
REMARK  102  A    between atoms: _259  and  _260
REMARK  103  A    between atoms: _259  and  _262
REMARK  104  A    between atoms: _265  and  _267
REMARK  105  A    between atoms: _267  and  _268
REMARK  106  A    between atoms: _267  and  _270
REMARK  107  A    between atoms: _273  and  _275
REMARK  108  A    between atoms: _275  and  _276
REMARK  109  A    between atoms: _278  and  _280
REMARK  110  A    between atoms: _280  and  _281
REMARK  111  A    between atoms: _280  and  _283
REMARK  112  A    between atoms: _283  and  _284
REMARK  113  A    between atoms: _287  and  _289
REMARK  114  A    between atoms: _289  and  _290
REMARK  115  A    between atoms: _289  and  _292
REMARK  116  A    between atoms: _292  and  _293
REMARK  117  A    between atoms: _295  and  _297
REMARK  118  A    between atoms: _297  and  _298
REMARK  119  A    between atoms: _297  and  _300
REMARK  120  A    between atoms: _300  and  _301
REMARK  121  A    between atoms: _304  and  _306
REMARK  122  A    between atoms: _306  and  _307
REMARK  123  A    between atoms: _310  and  _312
REMARK  124  A    between atoms: _312  and  _313
REMARK  125  A    between atoms: _312  and  _315
REMARK  126  A    between atoms: _318  and  _320
REMARK  127  A    between atoms: _320  and  _321
REMARK  128  A    between atoms: _320  and  _323
REMARK  129  A    between atoms: _323  and  _324
REMARK  130  A    between atoms: _329  and  _330
REMARK  131  A    between atoms: _332  and  _334
REMARK  132  A    between atoms: _334  and  _335
REMARK  133  A    between atoms: _334  and  _337
REMARK  134  A    between atoms: _337  and  _338
REMARK  135  A    between atoms: _344  and  _346
REMARK  136  A    between atoms: _346  and  _347
REMARK  137  A    between atoms: _346  and  _349
REMARK  138  A    between atoms: _349  and  _350
REMARK  139  A    between atoms: _353  and  _355
REMARK  140  A    between atoms: _355  and  _356
REMARK  141  A    between atoms: _355  and  _358
REMARK  142  A    between atoms: _360  and  _362
REMARK  143  A    between atoms: _362  and  _363
REMARK  144  A    between atoms: _362  and  _365
REMARK  145  A    between atoms: _365  and  _366
REMARK  146  A    between atoms: _371  and  _373
REMARK  147  A    between atoms: _373  and  _374
REMARK  148  A    between atoms: _373  and  _376
REMARK  149  A    between atoms: _376  and  _377
REMARK  150  A    between atoms: _380  and  _382
REMARK  151  A    between atoms: _382  and  _383
REMARK  152  A    between atoms: _382  and  _385
REMARK  153  A    between atoms: _385  and  _386
REMARK  154  A    between atoms: _386  and  _387
REMARK  155  A    between atoms: _390  and  _392
REMARK  156  A    between atoms: _392  and  _393
REMARK  157  A    between atoms: _392  and  _395
REMARK  158  A    between atoms: _395  and  _396
REMARK  159  A    between atoms: _399  and  _401
REMARK  160  A    between atoms: _401  and  _402
REMARK  161  A    between atoms: _401  and  _404
REMARK  162  A    between atoms: _407  and  _409
REMARK  163  A    between atoms: _409  and  _410
REMARK  164  A    between atoms: _412  and  _414
REMARK  165  A    between atoms: _414  and  _415
REMARK  166  A    between atoms: _414  and  _417
REMARK  167  A    between atoms: _420  and  _422
REMARK  168  A    between atoms: _422  and  _423
REMARK  169  A    between atoms: _422  and  _425
REMARK  170  A    between atoms: _425  and  _426
REMARK  171  A    between atoms: _431  and  _433
REMARK  172  A    between atoms: _433  and  _434
REMARK  173  A    between atoms: _433  and  _436
REMARK  174  A    between atoms: _436  and  _437
REMARK  175  A    between atoms: _437  and  _438
REMARK  176  A    between atoms: _443  and  _445
REMARK  177  A    between atoms: _445  and  _446
REMARK  178  A    between atoms: _445  and  _448
REMARK  179  A    between atoms: _448  and  _449
REMARK  180  A    between atoms: _454  and  _455
REMARK  181  A    between atoms: _457  and  _459
REMARK  182  A    between atoms: _459  and  _460
REMARK  183  A    between atoms: _459  and  _462
REMARK  184  A    between atoms: _462  and  _463
REMARK  185  A    between atoms: _465  and  _467
REMARK  186  A    between atoms: _467  and  _468
REMARK  187  A    between atoms: _467  and  _470
REMARK  188  A    between atoms: _470  and  _471
REMARK  189  A    between atoms: _474  and  _476
REMARK  190  A    between atoms: _476  and  _477
REMARK  191  A    between atoms: _476  and  _479
REMARK  192  A    between atoms: _479  and  _480
REMARK  193  A    between atoms: _480  and  _481
REMARK  194  A    between atoms: _484  and  _486
REMARK  195  A    between atoms: _486  and  _487
REMARK  196  A    between atoms: _486  and  _489
REMARK  197  A    between atoms: _489  and  _490
REMARK  198  A    between atoms: _496  and  _498
REMARK  199  A    between atoms: _498  and  _499
REMARK                            x       y       z     vdW  Elec       q    Type
REMARK                         _______ _______ _______ _____ _____    ______ ____
ROOT
ATOM      1  CB  PHE A   1      -1.097  37.054 -54.468  0.00  0.00    +0.051 C 
ENDROOT
BRANCH   1   2
ATOM      2  CG  PHE A   1      -2.004  36.505 -53.408  0.00  0.00    -0.020 A 
ATOM      3  CD2 PHE A   1      -1.596  35.439 -52.615  0.00  0.00    -0.004 A 
ATOM      4  CE2 PHE A   1      -2.410  34.950 -51.600  0.00  0.00    -0.000 A 
ATOM      5  CZ  PHE A   1      -3.655  35.531 -51.368  0.00  0.00    -0.000 A 
ATOM      6  CE1 PHE A   1      -4.076  36.598 -52.159  0.00  0.00    -0.000 A 
ATOM      7  CD1 PHE A   1      -3.249  37.077 -53.173  0.00  0.00    -0.004 A 
ENDBRANCH   1   2
BRANCH   1   8
ATOM      8  CA  PHE A   1       0.020  37.938 -53.913  0.00  0.00    +0.137 C 
BRANCH   8   9
ATOM      9  N   PHE A   1      -0.495  39.260 -53.608  0.00  0.00    -0.239 NA
ATOM     10  H   PHE A   1      -1.496  39.476 -53.789  0.00  0.00    +0.142 HD
ENDBRANCH   8   9
BRANCH   8  11
ATOM     11  C   PHE A   1       1.114  38.140 -54.948  0.00  0.00    +0.224 C 
ATOM     12  O   PHE A   1       0.934  38.886 -55.905  0.00  0.00    -0.287 OA
ENDBRANCH   8  11
ENDBRANCH   1   8
TORSDOF 4
REMARK  Name = ../refined-set-2016/1szd/1szd_pocket.pdb
REMARK  199 active torsions:
REMARK  status: ('A' for Active; 'I' for Inactive)
REMARK    1  A    between atoms: _1  and  _3
REMARK    2  A    between atoms: _3  and  _4
REMARK    3  A    between atoms: _3  and  _6
REMARK    4  A    between atoms: _9  and  _11
REMARK    5  A    between atoms: _11  and  _12
REMARK    6  A    between atoms: _11  and  _14
REMARK    7  A    between atoms: _17  and  _19
REMARK    8  A    between atoms: _19  and  _20
REMARK    9  A    between atoms: _22  and  _24
REMARK   10  A    between atoms: _24  and  _25
REMARK   11  A    between atoms: _28  and  _30
REMARK   12  A    between atoms: _30  and  _31
REMARK   13  A    between atoms: _33  and  _35
REMARK   14  A    between atoms: _35  and  _36
REMARK   15  A    between atoms: _35  and  _38
REMARK   16  A    between atoms: _38  and  _39
REMARK   17  A    between atoms: _42  and  _44
REMARK   18  A    between atoms: _44  and  _45
REMARK   19  A    between atoms: _44  and  _47
REMARK   20  A    between atoms: _47  and  _48
REMARK   21  A    between atoms: _50  and  _52
REMARK   22  A    between atoms: _52  and  _53
REMARK   23  A    between atoms: _52  and  _55
REMARK   24  A    between atoms: _55  and  _56
REMARK   25  A    between atoms: _59  and  _61
REMARK   26  A    between atoms: _61  and  _62
REMARK   27  A    between atoms: _61  and  _64
REMARK   28  A    between atoms: _64  and  _65
REMARK   29  A    between atoms: _67  and  _69
REMARK   30  A    between atoms: _69  and  _70
REMARK   31  A    between atoms: _69  and  _72
REMARK   32  A    between atoms: _74  and  _76
REMARK   33  A    between atoms: _76  and  _77
REMARK   34  A    between atoms: _76  and  _79
REMARK   35  A    between atoms: _79  and  _80
REMARK   36  A    between atoms: _83  and  _85
REMARK   37  A    between atoms: _85  and  _86
REMARK   38  A    between atoms: _85  and  _88
REMARK   39  A    between atoms: _88  and  _89
REMARK   40  A    between atoms: _95  and  _97
REMARK   41  A    between atoms: _97  and  _98
REMARK   42  A    between atoms: _97  and  _100
REMARK   43  A    between atoms: _100  and  _101
REMARK   44  A    between atoms: _101  and  _102
REMARK   45  A    between atoms: _102  and  _103
REMARK   46  A    between atoms: _113  and  _114
REMARK   47  A    between atoms: _119  and  _121
REMARK   48  A    between atoms: _121  and  _122
REMARK   49  A    between atoms: _121  and  _124
REMARK   50  A    between atoms: _124  and  _125
REMARK   51  A    between atoms: _125  and  _126
REMARK   52  A    between atoms: _129  and  _131
REMARK   53  A    between atoms: _131  and  _132
REMARK   54  A    between atoms: _135  and  _137
REMARK   55  A    between atoms: _137  and  _138
REMARK   56  A    between atoms: _137  and  _140
REMARK   57  A    between atoms: _143  and  _145
REMARK   58  A    between atoms: _145  and  _146
REMARK   59  A    between atoms: _145  and  _148
REMARK   60  A    between atoms: _148  and  _149
REMARK   61  A    between atoms: _155  and  _157
REMARK   62  A    between atoms: _157  and  _158
REMARK   63  A    between atoms: _157  and  _160
REMARK   64  A    between atoms: _160  and  _161
REMARK   65  A    between atoms: _164  and  _166
REMARK   66  A    between atoms: _166  and  _167
REMARK   67  A    between atoms: _166  and  _169
REMARK   68  A    between atoms: _169  and  _170
REMARK   69  A    between atoms: _176  and  _178
REMARK   70  A    between atoms: _178  and  _179
REMARK   71  A    between atoms: _178  and  _181
REMARK   72  A    between atoms: _181  and  _182
REMARK   73  A    between atoms: _185  and  _187
REMARK   74  A    between atoms: _187  and  _188
REMARK   75  A    between atoms: _187  and  _190
REMARK   76  A    between atoms: _190  and  _191
REMARK   77  A    between atoms: _191  and  _192
REMARK   78  A    between atoms: _197  and  _199
REMARK   79  A    between atoms: _199  and  _200
REMARK   80  A    between atoms: _199  and  _202
REMARK   81  A    between atoms: _202  and  _203
REMARK   82  A    between atoms: _208  and  _210
REMARK   83  A    between atoms: _210  and  _211
REMARK   84  A    between atoms: _210  and  _213
REMARK   85  A    between atoms: _213  and  _214
REMARK   86  A    between atoms: _217  and  _219
REMARK   87  A    between atoms: _219  and  _220
REMARK   88  A    between atoms: _219  and  _222
REMARK   89  A    between atoms: _222  and  _223
REMARK   90  A    between atoms: _228  and  _230
REMARK   91  A    between atoms: _230  and  _231
REMARK   92  A    between atoms: _230  and  _233
REMARK   93  A    between atoms: _233  and  _234
REMARK   94  A    between atoms: _237  and  _239
REMARK   95  A    between atoms: _239  and  _240
REMARK   96  A    between atoms: _239  and  _242
REMARK   97  A    between atoms: _245  and  _247
REMARK   98  A    between atoms: _247  and  _248
REMARK   99  A    between atoms: _247  and  _250
REMARK  100  A    between atoms: _250  and  _251
REMARK  101  A    between atoms: _257  and  _259
REMARK  102  A    between atoms: _259  and  _260
REMARK  103  A    between atoms: _259  and  _262
REMARK  104  A    between atoms: _265  and  _267
REMARK  105  A    between atoms: _267  and  _268
REMARK  106  A    between atoms: _267  and  _270
REMARK  107  A    between atoms: _273  and  _275
REMARK  108  A    between atoms: _275  and  _276
REMARK  109  A    between atoms: _278  and  _280
REMARK  110  A    between atoms: _280  and  _281
REMARK  111  A    between atoms: _280  and  _283
REMARK  112  A    between atoms: _283  and  _284
REMARK  113  A    between atoms: _287  and  _289
REMARK  114  A    between atoms: _289  and  _290
REMARK  115  A    between atoms: _289  and  _292
REMARK  116  A    between atoms: _292  and  _293
REMARK  117  A    between atoms: _295  and  _297
REMARK  118  A    between atoms: _297  and  _298
REMARK  119  A    between atoms: _297  and  _300
REMARK  120  A    between atoms: _300  and  _301
REMARK  121  A    between atoms: _304  and  _306
REMARK  122  A    between atoms: _306  and  _307
REMARK  123  A    between atoms: _310  and  _312
REMARK  124  A    between atoms: _312  and  _313
REMARK  125  A    between atoms: _312  and  _315
REMARK  126  A    between atoms: _318  and  _320
REMARK  127  A    between atoms: _320  and  _321
REMARK  128  A    between atoms: _320  and  _323
REMARK  129  A    between atoms: _323  and  _324
REMARK  130  A    between atoms: _329  and  _330
REMARK  131  A    between atoms: _332  and  _334
REMARK  132  A    between atoms: _334  and  _335
REMARK  133  A    between atoms: _334  and  _337
REMARK  134  A    between atoms: _337  and  _338
REMARK  135  A    between atoms: _344  and  _346
REMARK  136  A    between atoms: _346  and  _347
REMARK  137  A    between atoms: _346  and  _349
REMARK  138  A    between atoms: _349  and  _350
REMARK  139  A    between atoms: _353  and  _355
REMARK  140  A    between atoms: _355  and  _356
REMARK  141  A    between atoms: _355  and  _358
REMARK  142  A    between atoms: _360  and  _362
REMARK  143  A    between atoms: _362  and  _363
REMARK  144  A    between atoms: _362  and  _365
REMARK  145  A    between atoms: _365  and  _366
REMARK  146  A    between atoms: _371  and  _373
REMARK  147  A    between atoms: _373  and  _374
REMARK  148  A    between atoms: _373  and  _376
REMARK  149  A    between atoms: _376  and  _377
REMARK  150  A    between atoms: _380  and  _382
REMARK  151  A    between atoms: _382  and  _383
REMARK  152  A    between atoms: _382  and  _385
REMARK  153  A    between atoms: _385  and  _386
REMARK  154  A    between atoms: _386  and  _387
REMARK  155  A    between atoms: _390  and  _392
REMARK  156  A    between atoms: _392  and  _393
REMARK  157  A    between atoms: _392  and  _395
REMARK  158  A    between atoms: _395  and  _396
REMARK  159  A    between atoms: _399  and  _401
REMARK  160  A    between atoms: _401  and  _402
REMARK  161  A    between atoms: _401  and  _404
REMARK  162  A    between atoms: _407  and  _409
REMARK  163  A    between atoms: _409  and  _410
REMARK  164  A    between atoms: _412  and  _414
REMARK  165  A    between atoms: _414  and  _415
REMARK  166  A    between atoms: _414  and  _417
REMARK  167  A    between atoms: _420  and  _422
REMARK  168  A    between atoms: _422  and  _423
REMARK  169  A    between atoms: _422  and  _425
REMARK  170  A    between atoms: _425  and  _426
REMARK  171  A    between atoms: _431  and  _433
REMARK  172  A    between atoms: _433  and  _434
REMARK  173  A    between atoms: _433  and  _436
REMARK  174  A    between atoms: _436  and  _437
REMARK  175  A    between atoms: _437  and  _438
REMARK  176  A    between atoms: _443  and  _445
REMARK  177  A    between atoms: _445  and  _446
REMARK  178  A    between atoms: _445  and  _448
REMARK  179  A    between atoms: _448  and  _449
REMARK  180  A    between atoms: _454  and  _455
REMARK  181  A    between atoms: _457  and  _459
REMARK  182  A    between atoms: _459  and  _460
REMARK  183  A    between atoms: _459  and  _462
REMARK  184  A    between atoms: _462  and  _463
REMARK  185  A    between atoms: _465  and  _467
REMARK  186  A    between atoms: _467  and  _468
REMARK  187  A    between atoms: _467  and  _470
REMARK  188  A    between atoms: _470  and  _471
REMARK  189  A    between atoms: _474  and  _476
REMARK  190  A    between atoms: _476  and  _477
REMARK  191  A    between atoms: _476  and  _479
REMARK  192  A    between atoms: _479  and  _480
REMARK  193  A    between atoms: _480  and  _481
REMARK  194  A    between atoms: _484  and  _486
REMARK  195  A    between atoms: _486  and  _487
REMARK  196  A    between atoms: _486  and  _489
REMARK  197  A    between atoms: _489  and  _490
REMARK  198  A    between atoms: _496  and  _498
REMARK  199  A    between atoms: _498  and  _499
REMARK                            x       y       z     vdW  Elec       q    Type
REMARK                         _______ _______ _______ _____ _____    ______ ____
ROOT
ATOM      1  C   SER A   5      -5.203  28.523 -42.477  0.00  0.00    +0.243 C 
ATOM      2  N   LEU A   6      -4.193  29.332 -42.171  0.00  0.00    -0.297 N 
ATOM      3  H   LEU A   6      -4.399  30.249 -41.726  0.00  0.00    +0.150 HD
ATOM      4  O   SER A   5      -5.044  27.421 -43.000  0.00  0.00    -0.273 OA
ENDROOT
BRANCH   2   5
ATOM      5  CA  LEU A   6      -2.800  28.972 -42.441  0.00  0.00    +0.149 C 
BRANCH   5   6
ATOM      6  C   LEU A   6      -2.637  28.459 -43.869  0.00  0.00    +0.241 C 
ATOM      7  O   LEU A   6      -1.988  27.435 -44.113  0.00  0.00    -0.273 OA
ATOM      8  N   ALA A   7      -3.230  29.182 -44.813  0.00  0.00    -0.297 N 
ATOM      9  H   ALA A   7      -3.757  30.036 -44.539  0.00  0.00    +0.150 HD
BRANCH   8  10
ATOM     10  CA  ALA A   7      -3.163  28.814 -46.217  0.00  0.00    +0.149 C 
ATOM     11  CB  ALA A   7      -4.567  28.702 -46.789  0.00  0.00    +0.031 C 
BRANCH  10  12
ATOM     12  C   ALA A   7      -2.347  29.799 -47.043  0.00  0.00    +0.241 C 
ATOM     13  N   VAL A   8      -1.855  30.858 -46.410  0.00  0.00    -0.297 N 
ATOM     14  H   VAL A   8      -2.040  30.982 -45.394  0.00  0.00    +0.150 HD
ATOM     15  O   ALA A   7      -2.169  29.606 -48.243  0.00  0.00    -0.273 OA
BRANCH  13  16
ATOM     16  CA  VAL A   8      -1.060  31.846 -47.122  0.00  0.00    +0.149 C 
BRANCH  16  17
ATOM     17  C   VAL A   8       0.361  31.872 -46.584  0.00  0.00    +0.241 C 
ATOM     18  O   VAL A   8       0.580  32.100 -45.395  0.00  0.00    -0.273 OA
ATOM     19  N   TYR A   9       1.317  31.628 -47.474  0.00  0.00    -0.298 N 
ATOM     20  H   TYR A   9       1.049  31.434 -48.460  0.00  0.00    +0.150 HD
BRANCH  19  21
ATOM     21  CA  TYR A   9       2.728  31.624 -47.113  0.00  0.00    +0.141 C 
BRANCH  21  22
ATOM     22  C   TYR A   9       3.374  32.926 -47.557  0.00  0.00    +0.227 C 
ATOM     23  O   TYR A   9       2.874  33.600 -48.454  0.00  0.00    -0.286 OA
ENDBRANCH  21  22
BRANCH  21  24
ATOM     24  CB  TYR A   9       3.436  30.432 -47.770  0.00  0.00    +0.054 C 
BRANCH  24  25
ATOM     25  CG  TYR A   9       3.024  29.109 -47.180  0.00  0.00    -0.020 A 
ATOM     26  CD2 TYR A   9       3.850  28.443 -46.275  0.00  0.00    -0.001 A 
ATOM     27  CE2 TYR A   9       3.453  27.253 -45.683  0.00  0.00    +0.036 A 
ATOM     28  CZ  TYR A   9       2.221  26.711 -45.995  0.00  0.00    +0.134 A 
ATOM     29  CE1 TYR A   9       1.381  27.349 -46.895  0.00  0.00    +0.036 A 
ATOM     30  CD1 TYR A   9       1.785  28.542 -47.481  0.00  0.00    -0.001 A 
BRANCH  28  31
ATOM     31  OH  TYR A   9       1.830  25.533 -45.402  0.00  0.00    -0.506 OA
ATOM     32  HH  TYR A   9       2.476  24.819 -45.631  0.00  0.00    +0.292 HD
ENDBRANCH  28  31
ENDBRANCH  24  25
ENDBRANCH  21  24
ENDBRANCH  19  21
ENDBRANCH  16  17
BRANCH  16  33
ATOM     33  CB  VAL A   8      -1.667  33.262 -46.998  0.00  0.00    +0.027 C 
ATOM     34  CG2 VAL A   8      -3.068  33.274 -47.585  0.00  0.00    +0.002 C 
ATOM     35  CG1 VAL A   8      -0.785  34.278 -47.719  0.00  0.00    +0.002 C 
ENDBRANCH  16  33
ENDBRANCH  13  16
ENDBRANCH  10  12
ENDBRANCH   8  10
ENDBRANCH   5   6
BRANCH   5  36
ATOM     36  CB  LEU A   6      -2.330  27.915 -41.435  0.00  0.00    +0.029 C 
BRANCH  36  37
ATOM     37  CG  LEU A   6      -2.387  28.383 -39.973  0.00  0.00    +0.002 C 
ATOM     38  CD2 LEU A   6      -2.093  27.228 -39.021  0.00  0.00    +0.000 C 
ATOM     39  CD1 LEU A   6      -1.392  29.510 -39.770  0.00  0.00    +0.000 C 
ENDBRANCH  36  37
ENDBRANCH   5  36
ENDBRANCH   2   5
BRANCH   1  40
ATOM     40  CA  SER A   5      -6.602  29.027 -42.135  0.00  0.00    +0.178 C 
BRANCH  40  43
ATOM     41  C   THR A   4      -6.382  30.389 -40.145  0.00  0.00    +0.243 C 
ATOM     42  O   THR A   4      -6.300  29.396 -39.422  0.00  0.00    -0.273 OA
ATOM     43  N   SER A   5      -6.535  30.318 -41.462  0.00  0.00    -0.295 N 
ATOM     44  H   SER A   5      -6.608  31.193 -42.019  0.00  0.00    +0.150 HD
BRANCH  41  45
ATOM     45  CA  THR A   4      -6.314  31.778 -39.548  0.00  0.00    +0.176 C 
BRANCH  45  47
ATOM     46  C   GLY A   3      -7.850  32.767 -37.958  0.00  0.00    +0.243 C 
ATOM     47  N   THR A   4      -7.029  31.776 -38.280  0.00  0.00    -0.295 N 
ATOM     48  H   THR A   4      -6.894  30.986 -37.617  0.00  0.00    +0.150 HD
ATOM     49  O   GLY A   3      -8.041  33.729 -38.702  0.00  0.00    -0.273 OA
BRANCH  46  50
ATOM     50  CA  GLY A   3      -8.573  32.667 -36.631  0.00  0.00    +0.176 C 
BRANCH  50  52
ATOM     51  C   VAL A   2      -6.767  32.897 -35.023  0.00  0.00    +0.241 C 
ATOM     52  N   GLY A   3      -7.859  32.255 -35.431  0.00  0.00    -0.295 N 
ATOM     53  H   GLY A   3      -8.209  31.444 -34.882  0.00  0.00    +0.150 HD
ATOM     54  O   VAL A   2      -6.268  33.834 -35.641  0.00  0.00    -0.273 OA
BRANCH  51  55
ATOM     55  CA  VAL A   2      -6.155  32.401 -33.713  0.00  0.00    +0.148 C 
BRANCH  55  58
ATOM     56  C   VAL A   1      -4.195  31.049 -33.197  0.00  0.00    +0.238 C 
ATOM     57  O   VAL A   1      -4.893  30.144 -32.742  0.00  0.00    -0.274 OA
ATOM     58  N   VAL A   2      -4.710  32.163 -33.718  0.00  0.00    -0.297 N 
ATOM     59  H   VAL A   2      -4.076  32.874 -34.134  0.00  0.00    +0.150 HD
BRANCH  56  60
ATOM     60  CA  VAL A   1      -2.671  30.923 -33.186  0.00  0.00    +0.145 C 
BRANCH  60  61
ATOM     61  CB  VAL A   1      -2.223  29.734 -34.075  0.00  0.00    +0.025 C 
ATOM     62  CG2 VAL A   1      -0.731  29.472 -33.871  0.00  0.00    +0.002 C 
ATOM     63  CG1 VAL A   1      -2.510  30.020 -35.535  0.00  0.00    +0.002 C 
ENDBRANCH  60  61
BRANCH  60  64
ATOM     64  N   VAL A   1      -2.284  30.688 -31.792  0.00  0.00    -0.238 NA
ATOM     65  H   VAL A   1      -2.358  29.719 -31.421  0.00  0.00    +0.142 HD
ENDBRANCH  60  64
ENDBRANCH  56  60
ENDBRANCH  55  58
BRANCH  55  66
ATOM     66  CB  VAL A   2      -6.529  33.439 -32.626  0.00  0.00    +0.027 C 
ATOM     67  CG2 VAL A   2      -5.819  33.114 -31.320  0.00  0.00    +0.002 C 
ATOM     68  CG1 VAL A   2      -8.035  33.475 -32.434  0.00  0.00    +0.002 C 
ENDBRANCH  55  66
ENDBRANCH  51  55
ENDBRANCH  50  52
ENDBRANCH  46  50
ENDBRANCH  45  47
BRANCH  45  69
ATOM     69  CB  THR A   4      -4.829  32.170 -39.374  0.00  0.00    +0.137 C 
ATOM     70  CG2 THR A   4      -4.214  31.413 -38.215  0.00  0.00    +0.034 C 
BRANCH  69  71
ATOM     71  OG1 THR A   4      -4.106  31.884 -40.582  0.00  0.00    -0.382 OA
ATOM     72  HG1 THR A   4      -3.156  32.137 -40.464  0.00  0.00    +0.210 HD
ENDBRANCH  69  71
ENDBRANCH  45  69
ENDBRANCH  41  45
ENDBRANCH  40  43
BRANCH  40  73
ATOM     73  CB  SER A   5      -7.447  29.126 -43.412  0.00  0.00    +0.166 C 
BRANCH  73  74
ATOM     74  OG  SER A   5      -6.865  30.007 -44.355  0.00  0.00    -0.380 OA
ATOM     75  H   SER A   5      -6.790  30.911 -43.958  0.00  0.00    +0.211 HD
ENDBRANCH  73  74
ENDBRANCH  40  73
ENDBRANCH   1  40
TORSDOF 30
REMARK  Name = ../refined-set-2016/1szd/1szd_pocket.pdb
REMARK  199 active torsions:
REMARK  status: ('A' for Active; 'I' for Inactive)
REMARK    1  A    between atoms: _1  and  _3
REMARK    2  A    between atoms: _3  and  _4
REMARK    3  A    between atoms: _3  and  _6
REMARK    4  A    between atoms: _9  and  _11
REMARK    5  A    between atoms: _11  and  _12
REMARK    6  A    between atoms: _11  and  _14
REMARK    7  A    between atoms: _17  and  _19
REMARK    8  A    between atoms: _19  and  _20
REMARK    9  A    between atoms: _22  and  _24
REMARK   10  A    between atoms: _24  and  _25
REMARK   11  A    between atoms: _28  and  _30
REMARK   12  A    between atoms: _30  and  _31
REMARK   13  A    between atoms: _33  and  _35
REMARK   14  A    between atoms: _35  and  _36
REMARK   15  A    between atoms: _35  and  _38
REMARK   16  A    between atoms: _38  and  _39
REMARK   17  A    between atoms: _42  and  _44
REMARK   18  A    between atoms: _44  and  _45
REMARK   19  A    between atoms: _44  and  _47
REMARK   20  A    between atoms: _47  and  _48
REMARK   21  A    between atoms: _50  and  _52
REMARK   22  A    between atoms: _52  and  _53
REMARK   23  A    between atoms: _52  and  _55
REMARK   24  A    between atoms: _55  and  _56
REMARK   25  A    between atoms: _59  and  _61
REMARK   26  A    between atoms: _61  and  _62
REMARK   27  A    between atoms: _61  and  _64
REMARK   28  A    between atoms: _64  and  _65
REMARK   29  A    between atoms: _67  and  _69
REMARK   30  A    between atoms: _69  and  _70
REMARK   31  A    between atoms: _69  and  _72
REMARK   32  A    between atoms: _74  and  _76
REMARK   33  A    between atoms: _76  and  _77
REMARK   34  A    between atoms: _76  and  _79
REMARK   35  A    between atoms: _79  and  _80
REMARK   36  A    between atoms: _83  and  _85
REMARK   37  A    between atoms: _85  and  _86
REMARK   38  A    between atoms: _85  and  _88
REMARK   39  A    between atoms: _88  and  _89
REMARK   40  A    between atoms: _95  and  _97
REMARK   41  A    between atoms: _97  and  _98
REMARK   42  A    between atoms: _97  and  _100
REMARK   43  A    between atoms: _100  and  _101
REMARK   44  A    between atoms: _101  and  _102
REMARK   45  A    between atoms: _102  and  _103
REMARK   46  A    between atoms: _113  and  _114
REMARK   47  A    between atoms: _119  and  _121
REMARK   48  A    between atoms: _121  and  _122
REMARK   49  A    between atoms: _121  and  _124
REMARK   50  A    between atoms: _124  and  _125
REMARK   51  A    between atoms: _125  and  _126
REMARK   52  A    between atoms: _129  and  _131
REMARK   53  A    between atoms: _131  and  _132
REMARK   54  A    between atoms: _135  and  _137
REMARK   55  A    between atoms: _137  and  _138
REMARK   56  A    between atoms: _137  and  _140
REMARK   57  A    between atoms: _143  and  _145
REMARK   58  A    between atoms: _145  and  _146
REMARK   59  A    between atoms: _145  and  _148
REMARK   60  A    between atoms: _148  and  _149
REMARK   61  A    between atoms: _155  and  _157
REMARK   62  A    between atoms: _157  and  _158
REMARK   63  A    between atoms: _157  and  _160
REMARK   64  A    between atoms: _160  and  _161
REMARK   65  A    between atoms: _164  and  _166
REMARK   66  A    between atoms: _166  and  _167
REMARK   67  A    between atoms: _166  and  _169
REMARK   68  A    between atoms: _169  and  _170
REMARK   69  A    between atoms: _176  and  _178
REMARK   70  A    between atoms: _178  and  _179
REMARK   71  A    between atoms: _178  and  _181
REMARK   72  A    between atoms: _181  and  _182
REMARK   73  A    between atoms: _185  and  _187
REMARK   74  A    between atoms: _187  and  _188
REMARK   75  A    between atoms: _187  and  _190
REMARK   76  A    between atoms: _190  and  _191
REMARK   77  A    between atoms: _191  and  _192
REMARK   78  A    between atoms: _197  and  _199
REMARK   79  A    between atoms: _199  and  _200
REMARK   80  A    between atoms: _199  and  _202
REMARK   81  A    between atoms: _202  and  _203
REMARK   82  A    between atoms: _208  and  _210
REMARK   83  A    between atoms: _210  and  _211
REMARK   84  A    between atoms: _210  and  _213
REMARK   85  A    between atoms: _213  and  _214
REMARK   86  A    between atoms: _217  and  _219
REMARK   87  A    between atoms: _219  and  _220
REMARK   88  A    between atoms: _219  and  _222
REMARK   89  A    between atoms: _222  and  _223
REMARK   90  A    between atoms: _228  and  _230
REMARK   91  A    between atoms: _230  and  _231
REMARK   92  A    between atoms: _230  and  _233
REMARK   93  A    between atoms: _233  and  _234
REMARK   94  A    between atoms: _237  and  _239
REMARK   95  A    between atoms: _239  and  _240
REMARK   96  A    between atoms: _239  and  _242
REMARK   97  A    between atoms: _245  and  _247
REMARK   98  A    between atoms: _247  and  _248
REMARK   99  A    between atoms: _247  and  _250
REMARK  100  A    between atoms: _250  and  _251
REMARK  101  A    between atoms: _257  and  _259
REMARK  102  A    between atoms: _259  and  _260
REMARK  103  A    between atoms: _259  and  _262
REMARK  104  A    between atoms: _265  and  _267
REMARK  105  A    between atoms: _267  and  _268
REMARK  106  A    between atoms: _267  and  _270
REMARK  107  A    between atoms: _273  and  _275
REMARK  108  A    between atoms: _275  and  _276
REMARK  109  A    between atoms: _278  and  _280
REMARK  110  A    between atoms: _280  and  _281
REMARK  111  A    between atoms: _280  and  _283
REMARK  112  A    between atoms: _283  and  _284
REMARK  113  A    between atoms: _287  and  _289
REMARK  114  A    between atoms: _289  and  _290
REMARK  115  A    between atoms: _289  and  _292
REMARK  116  A    between atoms: _292  and  _293
REMARK  117  A    between atoms: _295  and  _297
REMARK  118  A    between atoms: _297  and  _298
REMARK  119  A    between atoms: _297  and  _300
REMARK  120  A    between atoms: _300  and  _301
REMARK  121  A    between atoms: _304  and  _306
REMARK  122  A    between atoms: _306  and  _307
REMARK  123  A    between atoms: _310  and  _312
REMARK  124  A    between atoms: _312  and  _313
REMARK  125  A    between atoms: _312  and  _315
REMARK  126  A    between atoms: _318  and  _320
REMARK  127  A    between atoms: _320  and  _321
REMARK  128  A    between atoms: _320  and  _323
REMARK  129  A    between atoms: _323  and  _324
REMARK  130  A    between atoms: _329  and  _330
REMARK  131  A    between atoms: _332  and  _334
REMARK  132  A    between atoms: _334  and  _335
REMARK  133  A    between atoms: _334  and  _337
REMARK  134  A    between atoms: _337  and  _338
REMARK  135  A    between atoms: _344  and  _346
REMARK  136  A    between atoms: _346  and  _347
REMARK  137  A    between atoms: _346  and  _349
REMARK  138  A    between atoms: _349  and  _350
REMARK  139  A    between atoms: _353  and  _355
REMARK  140  A    between atoms: _355  and  _356
REMARK  141  A    between atoms: _355  and  _358
REMARK  142  A    between atoms: _360  and  _362
REMARK  143  A    between atoms: _362  and  _363
REMARK  144  A    between atoms: _362  and  _365
REMARK  145  A    between atoms: _365  and  _366
REMARK  146  A    between atoms: _371  and  _373
REMARK  147  A    between atoms: _373  and  _374
REMARK  148  A    between atoms: _373  and  _376
REMARK  149  A    between atoms: _376  and  _377
REMARK  150  A    between atoms: _380  and  _382
REMARK  151  A    between atoms: _382  and  _383
REMARK  152  A    between atoms: _382  and  _385
REMARK  153  A    between atoms: _385  and  _386
REMARK  154  A    between atoms: _386  and  _387
REMARK  155  A    between atoms: _390  and  _392
REMARK  156  A    between atoms: _392  and  _393
REMARK  157  A    between atoms: _392  and  _395
REMARK  158  A    between atoms: _395  and  _396
REMARK  159  A    between atoms: _399  and  _401
REMARK  160  A    between atoms: _401  and  _402
REMARK  161  A    between atoms: _401  and  _404
REMARK  162  A    between atoms: _407  and  _409
REMARK  163  A    between atoms: _409  and  _410
REMARK  164  A    between atoms: _412  and  _414
REMARK  165  A    between atoms: _414  and  _415
REMARK  166  A    between atoms: _414  and  _417
REMARK  167  A    between atoms: _420  and  _422
REMARK  168  A    between atoms: _422  and  _423
REMARK  169  A    between atoms: _422  and  _425
REMARK  170  A    between atoms: _425  and  _426
REMARK  171  A    between atoms: _431  and  _433
REMARK  172  A    between atoms: _433  and  _434
REMARK  173  A    between atoms: _433  and  _436
REMARK  174  A    between atoms: _436  and  _437
REMARK  175  A    between atoms: _437  and  _438
REMARK  176  A    between atoms: _443  and  _445
REMARK  177  A    between atoms: _445  and  _446
REMARK  178  A    between atoms: _445  and  _448
REMARK  179  A    between atoms: _448  and  _449
REMARK  180  A    between atoms: _454  and  _455
REMARK  181  A    between atoms: _457  and  _459
REMARK  182  A    between atoms: _459  and  _460
REMARK  183  A    between atoms: _459  and  _462
REMARK  184  A    between atoms: _462  and  _463
REMARK  185  A    between atoms: _465  and  _467
REMARK  186  A    between atoms: _467  and  _468
REMARK  187  A    between atoms: _467  and  _470
REMARK  188  A    between atoms: _470  and  _471
REMARK  189  A    between atoms: _474  and  _476
REMARK  190  A    between atoms: _476  and  _477
REMARK  191  A    between atoms: _476  and  _479
REMARK  192  A    between atoms: _479  and  _480
REMARK  193  A    between atoms: _480  and  _481
REMARK  194  A    between atoms: _484  and  _486
REMARK  195  A    between atoms: _486  and  _487
REMARK  196  A    between atoms: _486  and  _489
REMARK  197  A    between atoms: _489  and  _490
REMARK  198  A    between atoms: _496  and  _498
REMARK  199  A    between atoms: _498  and  _499
REMARK                            x       y       z     vdW  Elec       q    Type
REMARK                         _______ _______ _______ _____ _____    ______ ____
ROOT
ATOM      1  CB  PHE A   1       1.707  34.450 -43.019  0.00  0.00    +0.051 C 
ENDROOT
BRANCH   1   2
ATOM      2  CG  PHE A   1       1.173  34.851 -41.667  0.00  0.00    -0.020 A 
ATOM      3  CD2 PHE A   1       1.639  35.999 -41.033  0.00  0.00    -0.004 A 
ATOM      4  CE2 PHE A   1       1.136  36.383 -39.793  0.00  0.00    -0.000 A 
ATOM      5  CZ  PHE A   1       0.163  35.623 -39.170  0.00  0.00    -0.000 A 
ATOM      6  CE1 PHE A   1      -0.313  34.467 -39.790  0.00  0.00    -0.000 A 
ATOM      7  CD1 PHE A   1       0.195  34.089 -41.034  0.00  0.00    -0.004 A 
ENDBRANCH   1   2
BRANCH   1   8
ATOM      8  CA  PHE A   1       2.989  33.609 -42.958  0.00  0.00    +0.137 C 
BRANCH   8   9
ATOM      9  N   PHE A   1       3.566  33.450 -44.291  0.00  0.00    -0.239 NA
ATOM     10  H   PHE A   1       3.140  33.940 -45.103  0.00  0.00    +0.142 HD
ENDBRANCH   8   9
BRANCH   8  11
ATOM     11  C   PHE A   1       2.659  32.257 -42.346  0.00  0.00    +0.224 C 
ATOM     12  O   PHE A   1       2.913  32.019 -41.165  0.00  0.00    -0.287 OA
ENDBRANCH   8  11
ENDBRANCH   1   8
TORSDOF 4
REMARK  Name = ../refined-set-2016/1szd/1szd_pocket.pdb
REMARK  199 active torsions:
REMARK  status: ('A' for Active; 'I' for Inactive)
REMARK    1  A    between atoms: _1  and  _3
REMARK    2  A    between atoms: _3  and  _4
REMARK    3  A    between atoms: _3  and  _6
REMARK    4  A    between atoms: _9  and  _11
REMARK    5  A    between atoms: _11  and  _12
REMARK    6  A    between atoms: _11  and  _14
REMARK    7  A    between atoms: _17  and  _19
REMARK    8  A    between atoms: _19  and  _20
REMARK    9  A    between atoms: _22  and  _24
REMARK   10  A    between atoms: _24  and  _25
REMARK   11  A    between atoms: _28  and  _30
REMARK   12  A    between atoms: _30  and  _31
REMARK   13  A    between atoms: _33  and  _35
REMARK   14  A    between atoms: _35  and  _36
REMARK   15  A    between atoms: _35  and  _38
REMARK   16  A    between atoms: _38  and  _39
REMARK   17  A    between atoms: _42  and  _44
REMARK   18  A    between atoms: _44  and  _45
REMARK   19  A    between atoms: _44  and  _47
REMARK   20  A    between atoms: _47  and  _48
REMARK   21  A    between atoms: _50  and  _52
REMARK   22  A    between atoms: _52  and  _53
REMARK   23  A    between atoms: _52  and  _55
REMARK   24  A    between atoms: _55  and  _56
REMARK   25  A    between atoms: _59  and  _61
REMARK   26  A    between atoms: _61  and  _62
REMARK   27  A    between atoms: _61  and  _64
REMARK   28  A    between atoms: _64  and  _65
REMARK   29  A    between atoms: _67  and  _69
REMARK   30  A    between atoms: _69  and  _70
REMARK   31  A    between atoms: _69  and  _72
REMARK   32  A    between atoms: _74  and  _76
REMARK   33  A    between atoms: _76  and  _77
REMARK   34  A    between atoms: _76  and  _79
REMARK   35  A    between atoms: _79  and  _80
REMARK   36  A    between atoms: _83  and  _85
REMARK   37  A    between atoms: _85  and  _86
REMARK   38  A    between atoms: _85  and  _88
REMARK   39  A    between atoms: _88  and  _89
REMARK   40  A    between atoms: _95  and  _97
REMARK   41  A    between atoms: _97  and  _98
REMARK   42  A    between atoms: _97  and  _100
REMARK   43  A    between atoms: _100  and  _101
REMARK   44  A    between atoms: _101  and  _102
REMARK   45  A    between atoms: _102  and  _103
REMARK   46  A    between atoms: _113  and  _114
REMARK   47  A    between atoms: _119  and  _121
REMARK   48  A    between atoms: _121  and  _122
REMARK   49  A    between atoms: _121  and  _124
REMARK   50  A    between atoms: _124  and  _125
REMARK   51  A    between atoms: _125  and  _126
REMARK   52  A    between atoms: _129  and  _131
REMARK   53  A    between atoms: _131  and  _132
REMARK   54  A    between atoms: _135  and  _137
REMARK   55  A    between atoms: _137  and  _138
REMARK   56  A    between atoms: _137  and  _140
REMARK   57  A    between atoms: _143  and  _145
REMARK   58  A    between atoms: _145  and  _146
REMARK   59  A    between atoms: _145  and  _148
REMARK   60  A    between atoms: _148  and  _149
REMARK   61  A    between atoms: _155  and  _157
REMARK   62  A    between atoms: _157  and  _158
REMARK   63  A    between atoms: _157  and  _160
REMARK   64  A    between atoms: _160  and  _161
REMARK   65  A    between atoms: _164  and  _166
REMARK   66  A    between atoms: _166  and  _167
REMARK   67  A    between atoms: _166  and  _169
REMARK   68  A    between atoms: _169  and  _170
REMARK   69  A    between atoms: _176  and  _178
REMARK   70  A    between atoms: _178  and  _179
REMARK   71  A    between atoms: _178  and  _181
REMARK   72  A    between atoms: _181  and  _182
REMARK   73  A    between atoms: _185  and  _187
REMARK   74  A    between atoms: _187  and  _188
REMARK   75  A    between atoms: _187  and  _190
REMARK   76  A    between atoms: _190  and  _191
REMARK   77  A    between atoms: _191  and  _192
REMARK   78  A    between atoms: _197  and  _199
REMARK   79  A    between atoms: _199  and  _200
REMARK   80  A    between atoms: _199  and  _202
REMARK   81  A    between atoms: _202  and  _203
REMARK   82  A    between atoms: _208  and  _210
REMARK   83  A    between atoms: _210  and  _211
REMARK   84  A    between atoms: _210  and  _213
REMARK   85  A    between atoms: _213  and  _214
REMARK   86  A    between atoms: _217  and  _219
REMARK   87  A    between atoms: _219  and  _220
REMARK   88  A    between atoms: _219  and  _222
REMARK   89  A    between atoms: _222  and  _223
REMARK   90  A    between atoms: _228  and  _230
REMARK   91  A    between atoms: _230  and  _231
REMARK   92  A    between atoms: _230  and  _233
REMARK   93  A    between atoms: _233  and  _234
REMARK   94  A    between atoms: _237  and  _239
REMARK   95  A    between atoms: _239  and  _240
REMARK   96  A    between atoms: _239  and  _242
REMARK   97  A    between atoms: _245  and  _247
REMARK   98  A    between atoms: _247  and  _248
REMARK   99  A    between atoms: _247  and  _250
REMARK  100  A    between atoms: _250  and  _251
REMARK  101  A    between atoms: _257  and  _259
REMARK  102  A    between atoms: _259  and  _260
REMARK  103  A    between atoms: _259  and  _262
REMARK  104  A    between atoms: _265  and  _267
REMARK  105  A    between atoms: _267  and  _268
REMARK  106  A    between atoms: _267  and  _270
REMARK  107  A    between atoms: _273  and  _275
REMARK  108  A    between atoms: _275  and  _276
REMARK  109  A    between atoms: _278  and  _280
REMARK  110  A    between atoms: _280  and  _281
REMARK  111  A    between atoms: _280  and  _283
REMARK  112  A    between atoms: _283  and  _284
REMARK  113  A    between atoms: _287  and  _289
REMARK  114  A    between atoms: _289  and  _290
REMARK  115  A    between atoms: _289  and  _292
REMARK  116  A    between atoms: _292  and  _293
REMARK  117  A    between atoms: _295  and  _297
REMARK  118  A    between atoms: _297  and  _298
REMARK  119  A    between atoms: _297  and  _300
REMARK  120  A    between atoms: _300  and  _301
REMARK  121  A    between atoms: _304  and  _306
REMARK  122  A    between atoms: _306  and  _307
REMARK  123  A    between atoms: _310  and  _312
REMARK  124  A    between atoms: _312  and  _313
REMARK  125  A    between atoms: _312  and  _315
REMARK  126  A    between atoms: _318  and  _320
REMARK  127  A    between atoms: _320  and  _321
REMARK  128  A    between atoms: _320  and  _323
REMARK  129  A    between atoms: _323  and  _324
REMARK  130  A    between atoms: _329  and  _330
REMARK  131  A    between atoms: _332  and  _334
REMARK  132  A    between atoms: _334  and  _335
REMARK  133  A    between atoms: _334  and  _337
REMARK  134  A    between atoms: _337  and  _338
REMARK  135  A    between atoms: _344  and  _346
REMARK  136  A    between atoms: _346  and  _347
REMARK  137  A    between atoms: _346  and  _349
REMARK  138  A    between atoms: _349  and  _350
REMARK  139  A    between atoms: _353  and  _355
REMARK  140  A    between atoms: _355  and  _356
REMARK  141  A    between atoms: _355  and  _358
REMARK  142  A    between atoms: _360  and  _362
REMARK  143  A    between atoms: _362  and  _363
REMARK  144  A    between atoms: _362  and  _365
REMARK  145  A    between atoms: _365  and  _366
REMARK  146  A    between atoms: _371  and  _373
REMARK  147  A    between atoms: _373  and  _374
REMARK  148  A    between atoms: _373  and  _376
REMARK  149  A    between atoms: _376  and  _377
REMARK  150  A    between atoms: _380  and  _382
REMARK  151  A    between atoms: _382  and  _383
REMARK  152  A    between atoms: _382  and  _385
REMARK  153  A    between atoms: _385  and  _386
REMARK  154  A    between atoms: _386  and  _387
REMARK  155  A    between atoms: _390  and  _392
REMARK  156  A    between atoms: _392  and  _393
REMARK  157  A    between atoms: _392  and  _395
REMARK  158  A    between atoms: _395  and  _396
REMARK  159  A    between atoms: _399  and  _401
REMARK  160  A    between atoms: _401  and  _402
REMARK  161  A    between atoms: _401  and  _404
REMARK  162  A    between atoms: _407  and  _409
REMARK  163  A    between atoms: _409  and  _410
REMARK  164  A    between atoms: _412  and  _414
REMARK  165  A    between atoms: _414  and  _415
REMARK  166  A    between atoms: _414  and  _417
REMARK  167  A    between atoms: _420  and  _422
REMARK  168  A    between atoms: _422  and  _423
REMARK  169  A    between atoms: _422  and  _425
REMARK  170  A    between atoms: _425  and  _426
REMARK  171  A    between atoms: _431  and  _433
REMARK  172  A    between atoms: _433  and  _434
REMARK  173  A    between atoms: _433  and  _436
REMARK  174  A    between atoms: _436  and  _437
REMARK  175  A    between atoms: _437  and  _438
REMARK  176  A    between atoms: _443  and  _445
REMARK  177  A    between atoms: _445  and  _446
REMARK  178  A    between atoms: _445  and  _448
REMARK  179  A    between atoms: _448  and  _449
REMARK  180  A    between atoms: _454  and  _455
REMARK  181  A    between atoms: _457  and  _459
REMARK  182  A    between atoms: _459  and  _460
REMARK  183  A    between atoms: _459  and  _462
REMARK  184  A    between atoms: _462  and  _463
REMARK  185  A    between atoms: _465  and  _467
REMARK  186  A    between atoms: _467  and  _468
REMARK  187  A    between atoms: _467  and  _470
REMARK  188  A    between atoms: _470  and  _471
REMARK  189  A    between atoms: _474  and  _476
REMARK  190  A    between atoms: _476  and  _477
REMARK  191  A    between atoms: _476  and  _479
REMARK  192  A    between atoms: _479  and  _480
REMARK  193  A    between atoms: _480  and  _481
REMARK  194  A    between atoms: _484  and  _486
REMARK  195  A    between atoms: _486  and  _487
REMARK  196  A    between atoms: _486  and  _489
REMARK  197  A    between atoms: _489  and  _490
REMARK  198  A    between atoms: _496  and  _498
REMARK  199  A    between atoms: _498  and  _499
REMARK                            x       y       z     vdW  Elec       q    Type
REMARK                         _______ _______ _______ _____ _____    ______ ____
ROOT
ATOM      1  CA  LEU A   4     -13.299  26.796 -35.769  0.00  0.00    +0.149 C 
ENDROOT
BRANCH   1   4
ATOM      2  C   ASN A   3     -11.157  27.263 -34.759  0.00  0.00    +0.241 C 
ATOM      3  O   ASN A   3     -11.219  26.226 -34.101  0.00  0.00    -0.273 OA
ATOM      4  N   LEU A   4     -12.111  27.628 -35.607  0.00  0.00    -0.297 N 
ATOM      5  H   LEU A   4     -12.012  28.506 -36.155  0.00  0.00    +0.150 HD
BRANCH   2   6
ATOM      6  CA  ASN A   3      -9.957  28.190 -34.625  0.00  0.00    +0.158 C 
BRANCH   6   8
ATOM      7  C   CYS A   2      -8.688  29.019 -32.738  0.00  0.00    +0.242 C 
ATOM      8  N   ASN A   3      -9.430  28.064 -33.279  0.00  0.00    -0.297 N 
ATOM      9  H   ASN A   3      -9.639  27.207 -32.728  0.00  0.00    +0.150 HD
ATOM     10  O   CYS A   2      -8.405  30.072 -33.322  0.00  0.00    -0.273 OA
BRANCH   7  11
ATOM     11  CA  CYS A   2      -8.163  28.731 -31.345  0.00  0.00    +0.160 C 
BRANCH  11  14
ATOM     12  C   LEU A   1      -6.315  27.167 -31.396  0.00  0.00    +0.238 C 
ATOM     13  O   LEU A   1      -6.999  26.276 -30.896  0.00  0.00    -0.274 OA
ATOM     14  N   CYS A   2      -6.767  28.399 -31.595  0.00  0.00    -0.297 N 
ATOM     15  H   CYS A   2      -6.116  29.136 -31.934  0.00  0.00    +0.150 HD
BRANCH  12  16
ATOM     16  CA  LEU A   1      -4.868  26.913 -31.767  0.00  0.00    +0.145 C 
BRANCH  16  17
ATOM     17  N   LEU A   1      -4.149  26.516 -30.567  0.00  0.00    -0.238 NA
ATOM     18  H   LEU A   1      -4.475  25.691 -30.024  0.00  0.00    +0.142 HD
ENDBRANCH  16  17
BRANCH  16  19
ATOM     19  CB  LEU A   1      -4.824  25.823 -32.848  0.00  0.00    +0.026 C 
BRANCH  19  20
ATOM     20  CG  LEU A   1      -5.716  26.121 -34.073  0.00  0.00    +0.002 C 
ATOM     21  CD2 LEU A   1      -5.104  27.245 -34.898  0.00  0.00    +0.000 C 
ATOM     22  CD1 LEU A   1      -5.878  24.882 -34.936  0.00  0.00    +0.000 C 
ENDBRANCH  19  20
ENDBRANCH  16  19
ENDBRANCH  12  16
ENDBRANCH  11  14
BRANCH  11  23
ATOM     23  CB  CYS A   2      -8.318  29.967 -30.470  0.00  0.00    +0.098 C 
ATOM     24  SG  CYS A   2     -10.058  30.406 -30.228  0.00  0.00    -0.080 S 
ENDBRANCH  11  23
ENDBRANCH   7  11
ENDBRANCH   6   8
BRANCH   6  25
ATOM     25  CB  ASN A   3      -8.868  27.796 -35.620  0.00  0.00    +0.114 C 
BRANCH  25  26
ATOM     26  CG  ASN A   3      -9.019  28.487 -36.947  0.00  0.00    +0.222 C 
ATOM     27  OD1 ASN A   3      -8.990  29.715 -37.019  0.00  0.00    -0.275 OA
ATOM     28  ND2 ASN A   3      -9.183  27.709 -38.006  0.00  0.00    -0.329 N 
ATOM     29 HD21 ASN A   3      -9.201  26.675 -37.894  0.00  0.00    +0.145 HD
ATOM     30 HD22 ASN A   3      -9.294  28.132 -38.950  0.00  0.00    +0.145 HD
ENDBRANCH  25  26
ENDBRANCH   6  25
ENDBRANCH   2   6
ENDBRANCH   1   4
BRANCH   1  31
ATOM     31  C   LEU A   4     -12.960  25.421 -36.338  0.00  0.00    +0.241 C 
ATOM     32  O   LEU A   4     -13.705  24.462 -36.144  0.00  0.00    -0.273 OA
ATOM     33  N   GLU A   5     -11.832  25.336 -37.033  0.00  0.00    -0.297 N 
ATOM     34  H   GLU A   5     -11.256  26.192 -37.164  0.00  0.00    +0.150 HD
BRANCH  33  35
ATOM     35  CA  GLU A   5     -11.376  24.084 -37.618  0.00  0.00    +0.149 C 
BRANCH  35  36
ATOM     36  C   GLU A   5      -9.888  23.892 -37.358  0.00  0.00    +0.241 C 
ATOM     37  O   GLU A   5      -9.151  24.860 -37.178  0.00  0.00    -0.273 OA
ATOM     38  N   THR A   6      -9.451  22.637 -37.333  0.00  0.00    -0.295 N 
ATOM     39  H   THR A   6     -10.128  21.858 -37.462  0.00  0.00    +0.150 HD
BRANCH  38  40
ATOM     40  CA  THR A   6      -8.039  22.331 -37.128  0.00  0.00    +0.176 C 
BRANCH  40  41
ATOM     41  C   THR A   6      -7.388  22.517 -38.489  0.00  0.00    +0.243 C 
ATOM     42  N   VAL A   7      -6.369  23.366 -38.546  0.00  0.00    -0.297 N 
ATOM     43  H   VAL A   7      -6.029  23.819 -37.674  0.00  0.00    +0.150 HD
ATOM     44  O   THR A   6      -7.802  21.905 -39.474  0.00  0.00    -0.273 OA
BRANCH  42  45
ATOM     45  CA  VAL A   7      -5.722  23.670 -39.814  0.00  0.00    +0.149 C 
BRANCH  45  46
ATOM     46  C   VAL A   7      -4.201  23.649 -39.798  0.00  0.00    +0.241 C 
ATOM     47  O   VAL A   7      -3.576  23.570 -38.744  0.00  0.00    -0.273 OA
ATOM     48  N   GLY A   8      -3.629  23.744 -40.994  0.00  0.00    -0.296 N 
ATOM     49  H   GLY A   8      -4.233  23.787 -41.840  0.00  0.00    +0.150 HD
BRANCH  48  50
ATOM     50  CA  GLY A   8      -2.187  23.790 -41.156  0.00  0.00    +0.163 C 
BRANCH  50  51
ATOM     51  C   GLY A   8      -1.373  22.734 -40.441  0.00  0.00    +0.229 C 
ATOM     52  O   GLY A   8      -1.721  21.557 -40.449  0.00  0.00    -0.286 OA
ENDBRANCH  50  51
ENDBRANCH  48  50
ENDBRANCH  45  46
BRANCH  45  53
ATOM     53  CB  VAL A   7      -6.149  25.071 -40.296  0.00  0.00    +0.027 C 
ATOM     54  CG2 VAL A   7      -5.803  26.106 -39.222  0.00  0.00    +0.002 C 
ATOM     55  CG1 VAL A   7      -7.647  25.097 -40.572  0.00  0.00    +0.002 C 
ENDBRANCH  45  53
ENDBRANCH  42  45
ENDBRANCH  40  41
BRANCH  40  56
ATOM     56  CB  THR A   6      -7.861  20.894 -36.633  0.00  0.00    +0.137 C 
ATOM     57  CG2 THR A   6      -6.383  20.562 -36.457  0.00  0.00    +0.034 C 
BRANCH  56  58
ATOM     58  OG1 THR A   6      -8.532  20.757 -35.376  0.00  0.00    -0.382 OA
ATOM     59  HG1 THR A   6      -8.424  19.830 -35.045  0.00  0.00    +0.210 HD
ENDBRANCH  56  58
ENDBRANCH  40  56
ENDBRANCH  38  40
ENDBRANCH  35  36
BRANCH  35  60
ATOM     60  CB  GLU A   5     -11.618  24.078 -39.127  0.00  0.00    +0.041 C 
BRANCH  60  61
ATOM     61  CG  GLU A   5     -13.086  24.050 -39.518  0.00  0.00    +0.116 C 
BRANCH  61  62
ATOM     62  CD  GLU A   5     -13.285  24.043 -41.020  0.00  0.00    +0.365 C 
ATOM     63  OE2 GLU A   5     -14.444  23.902 -41.466  0.00  0.00    -0.246 OA
ATOM     64  OE1 GLU A   5     -12.283  24.180 -41.754  0.00  0.00    -0.246 OA
ENDBRANCH  61  62
ENDBRANCH  60  61
ENDBRANCH  35  60
ENDBRANCH  33  35
ENDBRANCH   1  31
BRANCH   1  65
ATOM     65  CB  LEU A   4     -14.321  27.507 -36.658  0.00  0.00    +0.029 C 
BRANCH  65  66
ATOM     66  CG  LEU A   4     -14.819  28.839 -36.092  0.00  0.00    +0.002 C 
ATOM     67  CD2 LEU A   4     -15.436  28.646 -34.715  0.00  0.00    +0.000 C 
ATOM     68  CD1 LEU A   4     -15.832  29.434 -37.049  0.00  0.00    +0.000 C 
ENDBRANCH  65  66
ENDBRANCH   1  65
TORSDOF 29
REMARK  Name = ../refined-set-2016/1szd/1szd_pocket.pdb
REMARK  199 active torsions:
REMARK  status: ('A' for Active; 'I' for Inactive)
REMARK    1  A    between atoms: _1  and  _3
REMARK    2  A    between atoms: _3  and  _4
REMARK    3  A    between atoms: _3  and  _6
REMARK    4  A    between atoms: _9  and  _11
REMARK    5  A    between atoms: _11  and  _12
REMARK    6  A    between atoms: _11  and  _14
REMARK    7  A    between atoms: _17  and  _19
REMARK    8  A    between atoms: _19  and  _20
REMARK    9  A    between atoms: _22  and  _24
REMARK   10  A    between atoms: _24  and  _25
REMARK   11  A    between atoms: _28  and  _30
REMARK   12  A    between atoms: _30  and  _31
REMARK   13  A    between atoms: _33  and  _35
REMARK   14  A    between atoms: _35  and  _36
REMARK   15  A    between atoms: _35  and  _38
REMARK   16  A    between atoms: _38  and  _39
REMARK   17  A    between atoms: _42  and  _44
REMARK   18  A    between atoms: _44  and  _45
REMARK   19  A    between atoms: _44  and  _47
REMARK   20  A    between atoms: _47  and  _48
REMARK   21  A    between atoms: _50  and  _52
REMARK   22  A    between atoms: _52  and  _53
REMARK   23  A    between atoms: _52  and  _55
REMARK   24  A    between atoms: _55  and  _56
REMARK   25  A    between atoms: _59  and  _61
REMARK   26  A    between atoms: _61  and  _62
REMARK   27  A    between atoms: _61  and  _64
REMARK   28  A    between atoms: _64  and  _65
REMARK   29  A    between atoms: _67  and  _69
REMARK   30  A    between atoms: _69  and  _70
REMARK   31  A    between atoms: _69  and  _72
REMARK   32  A    between atoms: _74  and  _76
REMARK   33  A    between atoms: _76  and  _77
REMARK   34  A    between atoms: _76  and  _79
REMARK   35  A    between atoms: _79  and  _80
REMARK   36  A    between atoms: _83  and  _85
REMARK   37  A    between atoms: _85  and  _86
REMARK   38  A    between atoms: _85  and  _88
REMARK   39  A    between atoms: _88  and  _89
REMARK   40  A    between atoms: _95  and  _97
REMARK   41  A    between atoms: _97  and  _98
REMARK   42  A    between atoms: _97  and  _100
REMARK   43  A    between atoms: _100  and  _101
REMARK   44  A    between atoms: _101  and  _102
REMARK   45  A    between atoms: _102  and  _103
REMARK   46  A    between atoms: _113  and  _114
REMARK   47  A    between atoms: _119  and  _121
REMARK   48  A    between atoms: _121  and  _122
REMARK   49  A    between atoms: _121  and  _124
REMARK   50  A    between atoms: _124  and  _125
REMARK   51  A    between atoms: _125  and  _126
REMARK   52  A    between atoms: _129  and  _131
REMARK   53  A    between atoms: _131  and  _132
REMARK   54  A    between atoms: _135  and  _137
REMARK   55  A    between atoms: _137  and  _138
REMARK   56  A    between atoms: _137  and  _140
REMARK   57  A    between atoms: _143  and  _145
REMARK   58  A    between atoms: _145  and  _146
REMARK   59  A    between atoms: _145  and  _148
REMARK   60  A    between atoms: _148  and  _149
REMARK   61  A    between atoms: _155  and  _157
REMARK   62  A    between atoms: _157  and  _158
REMARK   63  A    between atoms: _157  and  _160
REMARK   64  A    between atoms: _160  and  _161
REMARK   65  A    between atoms: _164  and  _166
REMARK   66  A    between atoms: _166  and  _167
REMARK   67  A    between atoms: _166  and  _169
REMARK   68  A    between atoms: _169  and  _170
REMARK   69  A    between atoms: _176  and  _178
REMARK   70  A    between atoms: _178  and  _179
REMARK   71  A    between atoms: _178  and  _181
REMARK   72  A    between atoms: _181  and  _182
REMARK   73  A    between atoms: _185  and  _187
REMARK   74  A    between atoms: _187  and  _188
REMARK   75  A    between atoms: _187  and  _190
REMARK   76  A    between atoms: _190  and  _191
REMARK   77  A    between atoms: _191  and  _192
REMARK   78  A    between atoms: _197  and  _199
REMARK   79  A    between atoms: _199  and  _200
REMARK   80  A    between atoms: _199  and  _202
REMARK   81  A    between atoms: _202  and  _203
REMARK   82  A    between atoms: _208  and  _210
REMARK   83  A    between atoms: _210  and  _211
REMARK   84  A    between atoms: _210  and  _213
REMARK   85  A    between atoms: _213  and  _214
REMARK   86  A    between atoms: _217  and  _219
REMARK   87  A    between atoms: _219  and  _220
REMARK   88  A    between atoms: _219  and  _222
REMARK   89  A    between atoms: _222  and  _223
REMARK   90  A    between atoms: _228  and  _230
REMARK   91  A    between atoms: _230  and  _231
REMARK   92  A    between atoms: _230  and  _233
REMARK   93  A    between atoms: _233  and  _234
REMARK   94  A    between atoms: _237  and  _239
REMARK   95  A    between atoms: _239  and  _240
REMARK   96  A    between atoms: _239  and  _242
REMARK   97  A    between atoms: _245  and  _247
REMARK   98  A    between atoms: _247  and  _248
REMARK   99  A    between atoms: _247  and  _250
REMARK  100  A    between atoms: _250  and  _251
REMARK  101  A    between atoms: _257  and  _259
REMARK  102  A    between atoms: _259  and  _260
REMARK  103  A    between atoms: _259  and  _262
REMARK  104  A    between atoms: _265  and  _267
REMARK  105  A    between atoms: _267  and  _268
REMARK  106  A    between atoms: _267  and  _270
REMARK  107  A    between atoms: _273  and  _275
REMARK  108  A    between atoms: _275  and  _276
REMARK  109  A    between atoms: _278  and  _280
REMARK  110  A    between atoms: _280  and  _281
REMARK  111  A    between atoms: _280  and  _283
REMARK  112  A    between atoms: _283  and  _284
REMARK  113  A    between atoms: _287  and  _289
REMARK  114  A    between atoms: _289  and  _290
REMARK  115  A    between atoms: _289  and  _292
REMARK  116  A    between atoms: _292  and  _293
REMARK  117  A    between atoms: _295  and  _297
REMARK  118  A    between atoms: _297  and  _298
REMARK  119  A    between atoms: _297  and  _300
REMARK  120  A    between atoms: _300  and  _301
REMARK  121  A    between atoms: _304  and  _306
REMARK  122  A    between atoms: _306  and  _307
REMARK  123  A    between atoms: _310  and  _312
REMARK  124  A    between atoms: _312  and  _313
REMARK  125  A    between atoms: _312  and  _315
REMARK  126  A    between atoms: _318  and  _320
REMARK  127  A    between atoms: _320  and  _321
REMARK  128  A    between atoms: _320  and  _323
REMARK  129  A    between atoms: _323  and  _324
REMARK  130  A    between atoms: _329  and  _330
REMARK  131  A    between atoms: _332  and  _334
REMARK  132  A    between atoms: _334  and  _335
REMARK  133  A    between atoms: _334  and  _337
REMARK  134  A    between atoms: _337  and  _338
REMARK  135  A    between atoms: _344  and  _346
REMARK  136  A    between atoms: _346  and  _347
REMARK  137  A    between atoms: _346  and  _349
REMARK  138  A    between atoms: _349  and  _350
REMARK  139  A    between atoms: _353  and  _355
REMARK  140  A    between atoms: _355  and  _356
REMARK  141  A    between atoms: _355  and  _358
REMARK  142  A    between atoms: _360  and  _362
REMARK  143  A    between atoms: _362  and  _363
REMARK  144  A    between atoms: _362  and  _365
REMARK  145  A    between atoms: _365  and  _366
REMARK  146  A    between atoms: _371  and  _373
REMARK  147  A    between atoms: _373  and  _374
REMARK  148  A    between atoms: _373  and  _376
REMARK  149  A    between atoms: _376  and  _377
REMARK  150  A    between atoms: _380  and  _382
REMARK  151  A    between atoms: _382  and  _383
REMARK  152  A    between atoms: _382  and  _385
REMARK  153  A    between atoms: _385  and  _386
REMARK  154  A    between atoms: _386  and  _387
REMARK  155  A    between atoms: _390  and  _392
REMARK  156  A    between atoms: _392  and  _393
REMARK  157  A    between atoms: _392  and  _395
REMARK  158  A    between atoms: _395  and  _396
REMARK  159  A    between atoms: _399  and  _401
REMARK  160  A    between atoms: _401  and  _402
REMARK  161  A    between atoms: _401  and  _404
REMARK  162  A    between atoms: _407  and  _409
REMARK  163  A    between atoms: _409  and  _410
REMARK  164  A    between atoms: _412  and  _414
REMARK  165  A    between atoms: _414  and  _415
REMARK  166  A    between atoms: _414  and  _417
REMARK  167  A    between atoms: _420  and  _422
REMARK  168  A    between atoms: _422  and  _423
REMARK  169  A    between atoms: _422  and  _425
REMARK  170  A    between atoms: _425  and  _426
REMARK  171  A    between atoms: _431  and  _433
REMARK  172  A    between atoms: _433  and  _434
REMARK  173  A    between atoms: _433  and  _436
REMARK  174  A    between atoms: _436  and  _437
REMARK  175  A    between atoms: _437  and  _438
REMARK  176  A    between atoms: _443  and  _445
REMARK  177  A    between atoms: _445  and  _446
REMARK  178  A    between atoms: _445  and  _448
REMARK  179  A    between atoms: _448  and  _449
REMARK  180  A    between atoms: _454  and  _455
REMARK  181  A    between atoms: _457  and  _459
REMARK  182  A    between atoms: _459  and  _460
REMARK  183  A    between atoms: _459  and  _462
REMARK  184  A    between atoms: _462  and  _463
REMARK  185  A    between atoms: _465  and  _467
REMARK  186  A    between atoms: _467  and  _468
REMARK  187  A    between atoms: _467  and  _470
REMARK  188  A    between atoms: _470  and  _471
REMARK  189  A    between atoms: _474  and  _476
REMARK  190  A    between atoms: _476  and  _477
REMARK  191  A    between atoms: _476  and  _479
REMARK  192  A    between atoms: _479  and  _480
REMARK  193  A    between atoms: _480  and  _481
REMARK  194  A    between atoms: _484  and  _486
REMARK  195  A    between atoms: _486  and  _487
REMARK  196  A    between atoms: _486  and  _489
REMARK  197  A    between atoms: _489  and  _490
REMARK  198  A    between atoms: _496  and  _498
REMARK  199  A    between atoms: _498  and  _499
REMARK                            x       y       z     vdW  Elec       q    Type
REMARK                         _______ _______ _______ _____ _____    ______ ____
ROOT
ATOM      1  C   TYR A   4     -14.068  32.524 -30.996  0.00  0.00    +0.241 C 
ATOM      2  O   TYR A   4     -14.001  32.433 -29.766  0.00  0.00    -0.273 OA
ATOM      3  N   SER A   5     -13.282  33.330 -31.697  0.00  0.00    -0.295 N 
ATOM      4  H   SER A   5     -13.393  33.395 -32.729  0.00  0.00    +0.150 HD
ENDROOT
BRANCH   3   5
ATOM      5  CA  SER A   5     -12.264  34.124 -31.023  0.00  0.00    +0.178 C 
BRANCH   5   6
ATOM      6  C   SER A   5     -12.800  35.041 -29.921  0.00  0.00    +0.243 C 
ATOM      7  O   SER A   5     -12.145  35.207 -28.890  0.00  0.00    -0.273 OA
ATOM      8  N   ASP A   6     -13.977  35.638 -30.112  0.00  0.00    -0.296 N 
ATOM      9  H   ASP A   6     -14.504  35.484 -30.995  0.00  0.00    +0.150 HD
BRANCH   8  10
ATOM     10  CA  ASP A   6     -14.523  36.510 -29.073  0.00  0.00    +0.160 C 
BRANCH  10  11
ATOM     11  C   ASP A   6     -14.960  35.719 -27.843  0.00  0.00    +0.241 C 
ATOM     12  O   ASP A   6     -14.813  36.196 -26.719  0.00  0.00    -0.273 OA
ATOM     13  N   GLU A   7     -15.507  34.524 -28.057  0.00  0.00    -0.297 N 
ATOM     14  H   GLU A   7     -15.618  34.181 -29.033  0.00  0.00    +0.150 HD
BRANCH  13  15
ATOM     15  CA  GLU A   7     -15.954  33.685 -26.947  0.00  0.00    +0.149 C 
BRANCH  15  16
ATOM     16  C   GLU A   7     -14.707  33.198 -26.214  0.00  0.00    +0.241 C 
ATOM     17  O   GLU A   7     -14.682  33.132 -24.986  0.00  0.00    -0.273 OA
ATOM     18  N   PHE A   8     -13.677  32.862 -26.984  0.00  0.00    -0.297 N 
ATOM     19  H   PHE A   8     -13.783  32.921 -28.017  0.00  0.00    +0.150 HD
BRANCH  18  20
ATOM     20  CA  PHE A   8     -12.400  32.412 -26.431  0.00  0.00    +0.153 C 
BRANCH  20  21
ATOM     21  C   PHE A   8     -11.857  33.519 -25.527  0.00  0.00    +0.241 C 
ATOM     22  O   PHE A   8     -11.417  33.262 -24.401  0.00  0.00    -0.273 OA
ATOM     23  N   ALA A   9     -11.903  34.755 -26.016  0.00  0.00    -0.298 N 
ATOM     24  H   ALA A   9     -12.292  34.910 -26.968  0.00  0.00    +0.150 HD
BRANCH  23  25
ATOM     25  CA  ALA A   9     -11.421  35.899 -25.249  0.00  0.00    +0.137 C 
ATOM     26  CB  ALA A   9     -11.566  37.178 -26.062  0.00  0.00    +0.030 C 
BRANCH  25  27
ATOM     27  C   ALA A   9     -12.191  36.029 -23.939  0.00  0.00    +0.227 C 
ATOM     28  O   ALA A   9     -11.600  36.193 -22.868  0.00  0.00    -0.286 OA
ENDBRANCH  25  27
ENDBRANCH  23  25
ENDBRANCH  20  21
BRANCH  20  29
ATOM     29  CB  PHE A   8     -11.423  32.128 -27.579  0.00  0.00    +0.055 C 
BRANCH  29  30
ATOM     30  CG  PHE A   8     -10.005  31.870 -27.138  0.00  0.00    -0.020 A 
ATOM     31  CD2 PHE A   8      -9.661  30.685 -26.499  0.00  0.00    -0.004 A 
ATOM     32  CE2 PHE A   8      -8.343  30.435 -26.117  0.00  0.00    -0.000 A 
ATOM     33  CZ  PHE A   8      -7.354  31.379 -26.375  0.00  0.00    -0.000 A 
ATOM     34  CE1 PHE A   8      -7.687  32.569 -27.011  0.00  0.00    -0.000 A 
ATOM     35  CD1 PHE A   8      -9.010  32.809 -27.388  0.00  0.00    -0.004 A 
ENDBRANCH  29  30
ENDBRANCH  20  29
ENDBRANCH  18  20
ENDBRANCH  15  16
BRANCH  15  36
ATOM     36  CB  GLU A   7     -16.775  32.502 -27.477  0.00  0.00    +0.041 C 
BRANCH  36  37
ATOM     37  CG  GLU A   7     -17.353  31.564 -26.407  0.00  0.00    +0.116 C 
BRANCH  37  38
ATOM     38  CD  GLU A   7     -18.192  32.276 -25.356  0.00  0.00    +0.365 C 
ATOM     39  OE2 GLU A   7     -18.266  31.769 -24.211  0.00  0.00    -0.246 OA
ATOM     40  OE1 GLU A   7     -18.794  33.325 -25.661  0.00  0.00    -0.246 OA
ENDBRANCH  37  38
ENDBRANCH  36  37
ENDBRANCH  15  36
ENDBRANCH  13  15
ENDBRANCH  10  11
BRANCH  10  41
ATOM     41  CB  ASP A   6     -15.718  37.331 -29.580  0.00  0.00    +0.143 C 
BRANCH  41  42
ATOM     42  CG  ASP A   6     -15.302  38.488 -30.476  0.00  0.00    +0.367 C 
ATOM     43  OD2 ASP A   6     -14.119  38.887 -30.451  0.00  0.00    -0.246 OA
ATOM     44  OD1 ASP A   6     -16.175  39.011 -31.198  0.00  0.00    -0.246 OA
ENDBRANCH  41  42
ENDBRANCH  10  41
ENDBRANCH   8  10
ENDBRANCH   5   6
BRANCH   5  45
ATOM     45  CB  SER A   5     -11.458  34.924 -32.047  0.00  0.00    +0.166 C 
BRANCH  45  46
ATOM     46  OG  SER A   5     -12.310  35.642 -32.921  0.00  0.00    -0.380 OA
ATOM     47  H   SER A   5     -12.866  36.270 -32.396  0.00  0.00    +0.211 HD
ENDBRANCH  45  46
ENDBRANCH   5  45
ENDBRANCH   3   5
BRANCH   1  48
ATOM     48  CA  TYR A   4     -15.101  31.718 -31.772  0.00  0.00    +0.153 C 
BRANCH  48  50
ATOM     49  C   GLN A   3     -14.115  29.572 -31.229  0.00  0.00    +0.241 C 
ATOM     50  N   TYR A   4     -15.147  30.407 -31.138  0.00  0.00    -0.297 N 
ATOM     51  H   TYR A   4     -15.995  30.121 -30.609  0.00  0.00    +0.150 HD
ATOM     52  O   GLN A   3     -13.117  29.819 -31.903  0.00  0.00    -0.273 OA
BRANCH  49  53
ATOM     53  CA  GLN A   3     -14.237  28.248 -30.481  0.00  0.00    +0.149 C 
BRANCH  53  56
ATOM     54  C   HIS A   2     -13.598  25.951 -30.898  0.00  0.00    +0.241 C 
ATOM     55  O   HIS A   2     -14.565  25.528 -30.258  0.00  0.00    -0.273 OA
ATOM     56  N   GLN A   3     -13.369  27.247 -31.078  0.00  0.00    -0.297 N 
ATOM     57  H   GLN A   3     -12.558  27.549 -31.654  0.00  0.00    +0.150 HD
BRANCH  54  58
ATOM     58  CA  HIS A   2     -12.598  24.996 -31.534  0.00  0.00    +0.155 C 
BRANCH  58  60
ATOM     59  C   VAL A   1     -10.609  25.389 -30.197  0.00  0.00    +0.238 C 
ATOM     60  N   HIS A   2     -11.647  24.613 -30.495  0.00  0.00    -0.297 N 
ATOM     61  H   HIS A   2     -11.783  23.720 -29.980  0.00  0.00    +0.150 HD
ATOM     62  O   VAL A   1     -10.366  26.436 -30.800  0.00  0.00    -0.274 OA
BRANCH  59  63
ATOM     63  CA  VAL A   1      -9.693  24.905 -29.071  0.00  0.00    +0.145 C 
BRANCH  63  64
ATOM     64  CB  VAL A   1      -9.415  26.088 -28.105  0.00  0.00    +0.025 C 
ATOM     65  CG2 VAL A   1      -8.385  25.677 -27.052  0.00  0.00    +0.002 C 
ATOM     66  CG1 VAL A   1     -10.705  26.536 -27.436  0.00  0.00    +0.002 C 
ENDBRANCH  63  64
BRANCH  63  67
ATOM     67  N   VAL A   1      -8.457  24.380 -29.629  0.00  0.00    -0.238 NA
ATOM     68  H   VAL A   1      -7.898  24.970 -30.277  0.00  0.00    +0.142 HD
ENDBRANCH  63  67
ENDBRANCH  59  63
ENDBRANCH  58  60
BRANCH  58  69
ATOM     69  CB  HIS A   2     -13.332  23.769 -32.078  0.00  0.00    +0.076 C 
BRANCH  69  70
ATOM     70  CG  HIS A   2     -12.438  22.767 -32.734  0.00  0.00    +0.082 A 
ATOM     71  CD2 HIS A   2     -12.409  21.416 -32.655  0.00  0.00    +0.115 A 
ATOM     72  NE2 HIS A   2     -11.414  20.981 -33.497  0.00  0.00    -0.221 NA
ATOM     73  CE1 HIS A   2     -10.849  22.028 -34.071  0.00  0.00    +0.199 A 
ATOM     74  ND1 HIS A   2     -11.448  23.119 -33.627  0.00  0.00    -0.227 NA
ENDBRANCH  69  70
ENDBRANCH  58  69
ENDBRANCH  54  58
ENDBRANCH  53  56
BRANCH  53  75
ATOM     75  CB  GLN A   3     -13.826  28.442 -29.014  0.00  0.00    +0.039 C 
BRANCH  75  76
ATOM     76  CG  GLN A   3     -14.733  29.326 -28.184  0.00  0.00    +0.087 C 
BRANCH  76  77
ATOM     77  CD  GLN A   3     -16.174  28.865 -28.229  0.00  0.00    +0.219 C 
ATOM     78  NE2 GLN A   3     -16.602  28.143 -27.195  0.00  0.00    -0.329 N 
ATOM     79 HE21 GLN A   3     -15.960  27.937 -26.403  0.00  0.00    +0.145 HD
ATOM     80 HE22 GLN A   3     -17.578  27.785 -27.179  0.00  0.00    +0.145 HD
ATOM     81  OE1 GLN A   3     -16.891  29.139 -29.192  0.00  0.00    -0.275 OA
ENDBRANCH  76  77
ENDBRANCH  75  76
ENDBRANCH  53  75
ENDBRANCH  49  53
ENDBRANCH  48  50
BRANCH  48  82
ATOM     82  CB  TYR A   4     -16.439  32.445 -31.653  0.00  0.00    +0.055 C 
BRANCH  82  83
ATOM     83  CG  TYR A   4     -17.607  31.796 -32.354  0.00  0.00    -0.020 A 
ATOM     84  CD2 TYR A   4     -18.673  31.283 -31.623  0.00  0.00    -0.001 A 
ATOM     85  CE2 TYR A   4     -19.782  30.740 -32.259  0.00  0.00    +0.036 A 
ATOM     86  CZ  TYR A   4     -19.829  30.703 -33.643  0.00  0.00    +0.134 A 
ATOM     87  CE1 TYR A   4     -18.778  31.198 -34.398  0.00  0.00    +0.036 A 
ATOM     88  CD1 TYR A   4     -17.670  31.743 -33.748  0.00  0.00    -0.001 A 
BRANCH  86  89
ATOM     89  OH  TYR A   4     -20.950  30.198 -34.265  0.00  0.00    -0.506 OA
ATOM     90  HH  TYR A   4     -20.691  29.436 -34.842  0.00  0.00    +0.292 HD
ENDBRANCH  86  89
ENDBRANCH  82  83
ENDBRANCH  48  82
ENDBRANCH   1  48
TORSDOF 36
REMARK  Name = ../refined-set-2016/1szd/1szd_pocket.pdb
REMARK  199 active torsions:
REMARK  status: ('A' for Active; 'I' for Inactive)
REMARK    1  A    between atoms: _1  and  _3
REMARK    2  A    between atoms: _3  and  _4
REMARK    3  A    between atoms: _3  and  _6
REMARK    4  A    between atoms: _9  and  _11
REMARK    5  A    between atoms: _11  and  _12
REMARK    6  A    between atoms: _11  and  _14
REMARK    7  A    between atoms: _17  and  _19
REMARK    8  A    between atoms: _19  and  _20
REMARK    9  A    between atoms: _22  and  _24
REMARK   10  A    between atoms: _24  and  _25
REMARK   11  A    between atoms: _28  and  _30
REMARK   12  A    between atoms: _30  and  _31
REMARK   13  A    between atoms: _33  and  _35
REMARK   14  A    between atoms: _35  and  _36
REMARK   15  A    between atoms: _35  and  _38
REMARK   16  A    between atoms: _38  and  _39
REMARK   17  A    between atoms: _42  and  _44
REMARK   18  A    between atoms: _44  and  _45
REMARK   19  A    between atoms: _44  and  _47
REMARK   20  A    between atoms: _47  and  _48
REMARK   21  A    between atoms: _50  and  _52
REMARK   22  A    between atoms: _52  and  _53
REMARK   23  A    between atoms: _52  and  _55
REMARK   24  A    between atoms: _55  and  _56
REMARK   25  A    between atoms: _59  and  _61
REMARK   26  A    between atoms: _61  and  _62
REMARK   27  A    between atoms: _61  and  _64
REMARK   28  A    between atoms: _64  and  _65
REMARK   29  A    between atoms: _67  and  _69
REMARK   30  A    between atoms: _69  and  _70
REMARK   31  A    between atoms: _69  and  _72
REMARK   32  A    between atoms: _74  and  _76
REMARK   33  A    between atoms: _76  and  _77
REMARK   34  A    between atoms: _76  and  _79
REMARK   35  A    between atoms: _79  and  _80
REMARK   36  A    between atoms: _83  and  _85
REMARK   37  A    between atoms: _85  and  _86
REMARK   38  A    between atoms: _85  and  _88
REMARK   39  A    between atoms: _88  and  _89
REMARK   40  A    between atoms: _95  and  _97
REMARK   41  A    between atoms: _97  and  _98
REMARK   42  A    between atoms: _97  and  _100
REMARK   43  A    between atoms: _100  and  _101
REMARK   44  A    between atoms: _101  and  _102
REMARK   45  A    between atoms: _102  and  _103
REMARK   46  A    between atoms: _113  and  _114
REMARK   47  A    between atoms: _119  and  _121
REMARK   48  A    between atoms: _121  and  _122
REMARK   49  A    between atoms: _121  and  _124
REMARK   50  A    between atoms: _124  and  _125
REMARK   51  A    between atoms: _125  and  _126
REMARK   52  A    between atoms: _129  and  _131
REMARK   53  A    between atoms: _131  and  _132
REMARK   54  A    between atoms: _135  and  _137
REMARK   55  A    between atoms: _137  and  _138
REMARK   56  A    between atoms: _137  and  _140
REMARK   57  A    between atoms: _143  and  _145
REMARK   58  A    between atoms: _145  and  _146
REMARK   59  A    between atoms: _145  and  _148
REMARK   60  A    between atoms: _148  and  _149
REMARK   61  A    between atoms: _155  and  _157
REMARK   62  A    between atoms: _157  and  _158
REMARK   63  A    between atoms: _157  and  _160
REMARK   64  A    between atoms: _160  and  _161
REMARK   65  A    between atoms: _164  and  _166
REMARK   66  A    between atoms: _166  and  _167
REMARK   67  A    between atoms: _166  and  _169
REMARK   68  A    between atoms: _169  and  _170
REMARK   69  A    between atoms: _176  and  _178
REMARK   70  A    between atoms: _178  and  _179
REMARK   71  A    between atoms: _178  and  _181
REMARK   72  A    between atoms: _181  and  _182
REMARK   73  A    between atoms: _185  and  _187
REMARK   74  A    between atoms: _187  and  _188
REMARK   75  A    between atoms: _187  and  _190
REMARK   76  A    between atoms: _190  and  _191
REMARK   77  A    between atoms: _191  and  _192
REMARK   78  A    between atoms: _197  and  _199
REMARK   79  A    between atoms: _199  and  _200
REMARK   80  A    between atoms: _199  and  _202
REMARK   81  A    between atoms: _202  and  _203
REMARK   82  A    between atoms: _208  and  _210
REMARK   83  A    between atoms: _210  and  _211
REMARK   84  A    between atoms: _210  and  _213
REMARK   85  A    between atoms: _213  and  _214
REMARK   86  A    between atoms: _217  and  _219
REMARK   87  A    between atoms: _219  and  _220
REMARK   88  A    between atoms: _219  and  _222
REMARK   89  A    between atoms: _222  and  _223
REMARK   90  A    between atoms: _228  and  _230
REMARK   91  A    between atoms: _230  and  _231
REMARK   92  A    between atoms: _230  and  _233
REMARK   93  A    between atoms: _233  and  _234
REMARK   94  A    between atoms: _237  and  _239
REMARK   95  A    between atoms: _239  and  _240
REMARK   96  A    between atoms: _239  and  _242
REMARK   97  A    between atoms: _245  and  _247
REMARK   98  A    between atoms: _247  and  _248
REMARK   99  A    between atoms: _247  and  _250
REMARK  100  A    between atoms: _250  and  _251
REMARK  101  A    between atoms: _257  and  _259
REMARK  102  A    between atoms: _259  and  _260
REMARK  103  A    between atoms: _259  and  _262
REMARK  104  A    between atoms: _265  and  _267
REMARK  105  A    between atoms: _267  and  _268
REMARK  106  A    between atoms: _267  and  _270
REMARK  107  A    between atoms: _273  and  _275
REMARK  108  A    between atoms: _275  and  _276
REMARK  109  A    between atoms: _278  and  _280
REMARK  110  A    between atoms: _280  and  _281
REMARK  111  A    between atoms: _280  and  _283
REMARK  112  A    between atoms: _283  and  _284
REMARK  113  A    between atoms: _287  and  _289
REMARK  114  A    between atoms: _289  and  _290
REMARK  115  A    between atoms: _289  and  _292
REMARK  116  A    between atoms: _292  and  _293
REMARK  117  A    between atoms: _295  and  _297
REMARK  118  A    between atoms: _297  and  _298
REMARK  119  A    between atoms: _297  and  _300
REMARK  120  A    between atoms: _300  and  _301
REMARK  121  A    between atoms: _304  and  _306
REMARK  122  A    between atoms: _306  and  _307
REMARK  123  A    between atoms: _310  and  _312
REMARK  124  A    between atoms: _312  and  _313
REMARK  125  A    between atoms: _312  and  _315
REMARK  126  A    between atoms: _318  and  _320
REMARK  127  A    between atoms: _320  and  _321
REMARK  128  A    between atoms: _320  and  _323
REMARK  129  A    between atoms: _323  and  _324
REMARK  130  A    between atoms: _329  and  _330
REMARK  131  A    between atoms: _332  and  _334
REMARK  132  A    between atoms: _334  and  _335
REMARK  133  A    between atoms: _334  and  _337
REMARK  134  A    between atoms: _337  and  _338
REMARK  135  A    between atoms: _344  and  _346
REMARK  136  A    between atoms: _346  and  _347
REMARK  137  A    between atoms: _346  and  _349
REMARK  138  A    between atoms: _349  and  _350
REMARK  139  A    between atoms: _353  and  _355
REMARK  140  A    between atoms: _355  and  _356
REMARK  141  A    between atoms: _355  and  _358
REMARK  142  A    between atoms: _360  and  _362
REMARK  143  A    between atoms: _362  and  _363
REMARK  144  A    between atoms: _362  and  _365
REMARK  145  A    between atoms: _365  and  _366
REMARK  146  A    between atoms: _371  and  _373
REMARK  147  A    between atoms: _373  and  _374
REMARK  148  A    between atoms: _373  and  _376
REMARK  149  A    between atoms: _376  and  _377
REMARK  150  A    between atoms: _380  and  _382
REMARK  151  A    between atoms: _382  and  _383
REMARK  152  A    between atoms: _382  and  _385
REMARK  153  A    between atoms: _385  and  _386
REMARK  154  A    between atoms: _386  and  _387
REMARK  155  A    between atoms: _390  and  _392
REMARK  156  A    between atoms: _392  and  _393
REMARK  157  A    between atoms: _392  and  _395
REMARK  158  A    between atoms: _395  and  _396
REMARK  159  A    between atoms: _399  and  _401
REMARK  160  A    between atoms: _401  and  _402
REMARK  161  A    between atoms: _401  and  _404
REMARK  162  A    between atoms: _407  and  _409
REMARK  163  A    between atoms: _409  and  _410
REMARK  164  A    between atoms: _412  and  _414
REMARK  165  A    between atoms: _414  and  _415
REMARK  166  A    between atoms: _414  and  _417
REMARK  167  A    between atoms: _420  and  _422
REMARK  168  A    between atoms: _422  and  _423
REMARK  169  A    between atoms: _422  and  _425
REMARK  170  A    between atoms: _425  and  _426
REMARK  171  A    between atoms: _431  and  _433
REMARK  172  A    between atoms: _433  and  _434
REMARK  173  A    between atoms: _433  and  _436
REMARK  174  A    between atoms: _436  and  _437
REMARK  175  A    between atoms: _437  and  _438
REMARK  176  A    between atoms: _443  and  _445
REMARK  177  A    between atoms: _445  and  _446
REMARK  178  A    between atoms: _445  and  _448
REMARK  179  A    between atoms: _448  and  _449
REMARK  180  A    between atoms: _454  and  _455
REMARK  181  A    between atoms: _457  and  _459
REMARK  182  A    between atoms: _459  and  _460
REMARK  183  A    between atoms: _459  and  _462
REMARK  184  A    between atoms: _462  and  _463
REMARK  185  A    between atoms: _465  and  _467
REMARK  186  A    between atoms: _467  and  _468
REMARK  187  A    between atoms: _467  and  _470
REMARK  188  A    between atoms: _470  and  _471
REMARK  189  A    between atoms: _474  and  _476
REMARK  190  A    between atoms: _476  and  _477
REMARK  191  A    between atoms: _476  and  _479
REMARK  192  A    between atoms: _479  and  _480
REMARK  193  A    between atoms: _480  and  _481
REMARK  194  A    between atoms: _484  and  _486
REMARK  195  A    between atoms: _486  and  _487
REMARK  196  A    between atoms: _486  and  _489
REMARK  197  A    between atoms: _489  and  _490
REMARK  198  A    between atoms: _496  and  _498
REMARK  199  A    between atoms: _498  and  _499
REMARK                            x       y       z     vdW  Elec       q    Type
REMARK                         _______ _______ _______ _____ _____    ______ ____
ROOT
ATOM      1  O   HOH     1     -14.510  37.485 -34.824  0.00  0.00    +0.000 OA
ENDROOT
TORSDOF 0
REMARK  Name = ../refined-set-2016/1szd/1szd_pocket.pdb
REMARK  199 active torsions:
REMARK  status: ('A' for Active; 'I' for Inactive)
REMARK    1  A    between atoms: _1  and  _3
REMARK    2  A    between atoms: _3  and  _4
REMARK    3  A    between atoms: _3  and  _6
REMARK    4  A    between atoms: _9  and  _11
REMARK    5  A    between atoms: _11  and  _12
REMARK    6  A    between atoms: _11  and  _14
REMARK    7  A    between atoms: _17  and  _19
REMARK    8  A    between atoms: _19  and  _20
REMARK    9  A    between atoms: _22  and  _24
REMARK   10  A    between atoms: _24  and  _25
REMARK   11  A    between atoms: _28  and  _30
REMARK   12  A    between atoms: _30  and  _31
REMARK   13  A    between atoms: _33  and  _35
REMARK   14  A    between atoms: _35  and  _36
REMARK   15  A    between atoms: _35  and  _38
REMARK   16  A    between atoms: _38  and  _39
REMARK   17  A    between atoms: _42  and  _44
REMARK   18  A    between atoms: _44  and  _45
REMARK   19  A    between atoms: _44  and  _47
REMARK   20  A    between atoms: _47  and  _48
REMARK   21  A    between atoms: _50  and  _52
REMARK   22  A    between atoms: _52  and  _53
REMARK   23  A    between atoms: _52  and  _55
REMARK   24  A    between atoms: _55  and  _56
REMARK   25  A    between atoms: _59  and  _61
REMARK   26  A    between atoms: _61  and  _62
REMARK   27  A    between atoms: _61  and  _64
REMARK   28  A    between atoms: _64  and  _65
REMARK   29  A    between atoms: _67  and  _69
REMARK   30  A    between atoms: _69  and  _70
REMARK   31  A    between atoms: _69  and  _72
REMARK   32  A    between atoms: _74  and  _76
REMARK   33  A    between atoms: _76  and  _77
REMARK   34  A    between atoms: _76  and  _79
REMARK   35  A    between atoms: _79  and  _80
REMARK   36  A    between atoms: _83  and  _85
REMARK   37  A    between atoms: _85  and  _86
REMARK   38  A    between atoms: _85  and  _88
REMARK   39  A    between atoms: _88  and  _89
REMARK   40  A    between atoms: _95  and  _97
REMARK   41  A    between atoms: _97  and  _98
REMARK   42  A    between atoms: _97  and  _100
REMARK   43  A    between atoms: _100  and  _101
REMARK   44  A    between atoms: _101  and  _102
REMARK   45  A    between atoms: _102  and  _103
REMARK   46  A    between atoms: _113  and  _114
REMARK   47  A    between atoms: _119  and  _121
REMARK   48  A    between atoms: _121  and  _122
REMARK   49  A    between atoms: _121  and  _124
REMARK   50  A    between atoms: _124  and  _125
REMARK   51  A    between atoms: _125  and  _126
REMARK   52  A    between atoms: _129  and  _131
REMARK   53  A    between atoms: _131  and  _132
REMARK   54  A    between atoms: _135  and  _137
REMARK   55  A    between atoms: _137  and  _138
REMARK   56  A    between atoms: _137  and  _140
REMARK   57  A    between atoms: _143  and  _145
REMARK   58  A    between atoms: _145  and  _146
REMARK   59  A    between atoms: _145  and  _148
REMARK   60  A    between atoms: _148  and  _149
REMARK   61  A    between atoms: _155  and  _157
REMARK   62  A    between atoms: _157  and  _158
REMARK   63  A    between atoms: _157  and  _160
REMARK   64  A    between atoms: _160  and  _161
REMARK   65  A    between atoms: _164  and  _166
REMARK   66  A    between atoms: _166  and  _167
REMARK   67  A    between atoms: _166  and  _169
REMARK   68  A    between atoms: _169  and  _170
REMARK   69  A    between atoms: _176  and  _178
REMARK   70  A    between atoms: _178  and  _179
REMARK   71  A    between atoms: _178  and  _181
REMARK   72  A    between atoms: _181  and  _182
REMARK   73  A    between atoms: _185  and  _187
REMARK   74  A    between atoms: _187  and  _188
REMARK   75  A    between atoms: _187  and  _190
REMARK   76  A    between atoms: _190  and  _191
REMARK   77  A    between atoms: _191  and  _192
REMARK   78  A    between atoms: _197  and  _199
REMARK   79  A    between atoms: _199  and  _200
REMARK   80  A    between atoms: _199  and  _202
REMARK   81  A    between atoms: _202  and  _203
REMARK   82  A    between atoms: _208  and  _210
REMARK   83  A    between atoms: _210  and  _211
REMARK   84  A    between atoms: _210  and  _213
REMARK   85  A    between atoms: _213  and  _214
REMARK   86  A    between atoms: _217  and  _219
REMARK   87  A    between atoms: _219  and  _220
REMARK   88  A    between atoms: _219  and  _222
REMARK   89  A    between atoms: _222  and  _223
REMARK   90  A    between atoms: _228  and  _230
REMARK   91  A    between atoms: _230  and  _231
REMARK   92  A    between atoms: _230  and  _233
REMARK   93  A    between atoms: _233  and  _234
REMARK   94  A    between atoms: _237  and  _239
REMARK   95  A    between atoms: _239  and  _240
REMARK   96  A    between atoms: _239  and  _242
REMARK   97  A    between atoms: _245  and  _247
REMARK   98  A    between atoms: _247  and  _248
REMARK   99  A    between atoms: _247  and  _250
REMARK  100  A    between atoms: _250  and  _251
REMARK  101  A    between atoms: _257  and  _259
REMARK  102  A    between atoms: _259  and  _260
REMARK  103  A    between atoms: _259  and  _262
REMARK  104  A    between atoms: _265  and  _267
REMARK  105  A    between atoms: _267  and  _268
REMARK  106  A    between atoms: _267  and  _270
REMARK  107  A    between atoms: _273  and  _275
REMARK  108  A    between atoms: _275  and  _276
REMARK  109  A    between atoms: _278  and  _280
REMARK  110  A    between atoms: _280  and  _281
REMARK  111  A    between atoms: _280  and  _283
REMARK  112  A    between atoms: _283  and  _284
REMARK  113  A    between atoms: _287  and  _289
REMARK  114  A    between atoms: _289  and  _290
REMARK  115  A    between atoms: _289  and  _292
REMARK  116  A    between atoms: _292  and  _293
REMARK  117  A    between atoms: _295  and  _297
REMARK  118  A    between atoms: _297  and  _298
REMARK  119  A    between atoms: _297  and  _300
REMARK  120  A    between atoms: _300  and  _301
REMARK  121  A    between atoms: _304  and  _306
REMARK  122  A    between atoms: _306  and  _307
REMARK  123  A    between atoms: _310  and  _312
REMARK  124  A    between atoms: _312  and  _313
REMARK  125  A    between atoms: _312  and  _315
REMARK  126  A    between atoms: _318  and  _320
REMARK  127  A    between atoms: _320  and  _321
REMARK  128  A    between atoms: _320  and  _323
REMARK  129  A    between atoms: _323  and  _324
REMARK  130  A    between atoms: _329  and  _330
REMARK  131  A    between atoms: _332  and  _334
REMARK  132  A    between atoms: _334  and  _335
REMARK  133  A    between atoms: _334  and  _337
REMARK  134  A    between atoms: _337  and  _338
REMARK  135  A    between atoms: _344  and  _346
REMARK  136  A    between atoms: _346  and  _347
REMARK  137  A    between atoms: _346  and  _349
REMARK  138  A    between atoms: _349  and  _350
REMARK  139  A    between atoms: _353  and  _355
REMARK  140  A    between atoms: _355  and  _356
REMARK  141  A    between atoms: _355  and  _358
REMARK  142  A    between atoms: _360  and  _362
REMARK  143  A    between atoms: _362  and  _363
REMARK  144  A    between atoms: _362  and  _365
REMARK  145  A    between atoms: _365  and  _366
REMARK  146  A    between atoms: _371  and  _373
REMARK  147  A    between atoms: _373  and  _374
REMARK  148  A    between atoms: _373  and  _376
REMARK  149  A    between atoms: _376  and  _377
REMARK  150  A    between atoms: _380  and  _382
REMARK  151  A    between atoms: _382  and  _383
REMARK  152  A    between atoms: _382  and  _385
REMARK  153  A    between atoms: _385  and  _386
REMARK  154  A    between atoms: _386  and  _387
REMARK  155  A    between atoms: _390  and  _392
REMARK  156  A    between atoms: _392  and  _393
REMARK  157  A    between atoms: _392  and  _395
REMARK  158  A    between atoms: _395  and  _396
REMARK  159  A    between atoms: _399  and  _401
REMARK  160  A    between atoms: _401  and  _402
REMARK  161  A    between atoms: _401  and  _404
REMARK  162  A    between atoms: _407  and  _409
REMARK  163  A    between atoms: _409  and  _410
REMARK  164  A    between atoms: _412  and  _414
REMARK  165  A    between atoms: _414  and  _415
REMARK  166  A    between atoms: _414  and  _417
REMARK  167  A    between atoms: _420  and  _422
REMARK  168  A    between atoms: _422  and  _423
REMARK  169  A    between atoms: _422  and  _425
REMARK  170  A    between atoms: _425  and  _426
REMARK  171  A    between atoms: _431  and  _433
REMARK  172  A    between atoms: _433  and  _434
REMARK  173  A    between atoms: _433  and  _436
REMARK  174  A    between atoms: _436  and  _437
REMARK  175  A    between atoms: _437  and  _438
REMARK  176  A    between atoms: _443  and  _445
REMARK  177  A    between atoms: _445  and  _446
REMARK  178  A    between atoms: _445  and  _448
REMARK  179  A    between atoms: _448  and  _449
REMARK  180  A    between atoms: _454  and  _455
REMARK  181  A    between atoms: _457  and  _459
REMARK  182  A    between atoms: _459  and  _460
REMARK  183  A    between atoms: _459  and  _462
REMARK  184  A    between atoms: _462  and  _463
REMARK  185  A    between atoms: _465  and  _467
REMARK  186  A    between atoms: _467  and  _468
REMARK  187  A    between atoms: _467  and  _470
REMARK  188  A    between atoms: _470  and  _471
REMARK  189  A    between atoms: _474  and  _476
REMARK  190  A    between atoms: _476  and  _477
REMARK  191  A    between atoms: _476  and  _479
REMARK  192  A    between atoms: _479  and  _480
REMARK  193  A    between atoms: _480  and  _481
REMARK  194  A    between atoms: _484  and  _486
REMARK  195  A    between atoms: _486  and  _487
REMARK  196  A    between atoms: _486  and  _489
REMARK  197  A    between atoms: _489  and  _490
REMARK  198  A    between atoms: _496  and  _498
REMARK  199  A    between atoms: _498  and  _499
REMARK                            x       y       z     vdW  Elec       q    Type
REMARK                         _______ _______ _______ _____ _____    ______ ____
ROOT
ATOM      1  O   HOH     1     -12.901  38.358 -32.695  0.00  0.00    +0.000 OA
ENDROOT
TORSDOF 0
REMARK  Name = ../refined-set-2016/1szd/1szd_pocket.pdb
REMARK  199 active torsions:
REMARK  status: ('A' for Active; 'I' for Inactive)
REMARK    1  A    between atoms: _1  and  _3
REMARK    2  A    between atoms: _3  and  _4
REMARK    3  A    between atoms: _3  and  _6
REMARK    4  A    between atoms: _9  and  _11
REMARK    5  A    between atoms: _11  and  _12
REMARK    6  A    between atoms: _11  and  _14
REMARK    7  A    between atoms: _17  and  _19
REMARK    8  A    between atoms: _19  and  _20
REMARK    9  A    between atoms: _22  and  _24
REMARK   10  A    between atoms: _24  and  _25
REMARK   11  A    between atoms: _28  and  _30
REMARK   12  A    between atoms: _30  and  _31
REMARK   13  A    between atoms: _33  and  _35
REMARK   14  A    between atoms: _35  and  _36
REMARK   15  A    between atoms: _35  and  _38
REMARK   16  A    between atoms: _38  and  _39
REMARK   17  A    between atoms: _42  and  _44
REMARK   18  A    between atoms: _44  and  _45
REMARK   19  A    between atoms: _44  and  _47
REMARK   20  A    between atoms: _47  and  _48
REMARK   21  A    between atoms: _50  and  _52
REMARK   22  A    between atoms: _52  and  _53
REMARK   23  A    between atoms: _52  and  _55
REMARK   24  A    between atoms: _55  and  _56
REMARK   25  A    between atoms: _59  and  _61
REMARK   26  A    between atoms: _61  and  _62
REMARK   27  A    between atoms: _61  and  _64
REMARK   28  A    between atoms: _64  and  _65
REMARK   29  A    between atoms: _67  and  _69
REMARK   30  A    between atoms: _69  and  _70
REMARK   31  A    between atoms: _69  and  _72
REMARK   32  A    between atoms: _74  and  _76
REMARK   33  A    between atoms: _76  and  _77
REMARK   34  A    between atoms: _76  and  _79
REMARK   35  A    between atoms: _79  and  _80
REMARK   36  A    between atoms: _83  and  _85
REMARK   37  A    between atoms: _85  and  _86
REMARK   38  A    between atoms: _85  and  _88
REMARK   39  A    between atoms: _88  and  _89
REMARK   40  A    between atoms: _95  and  _97
REMARK   41  A    between atoms: _97  and  _98
REMARK   42  A    between atoms: _97  and  _100
REMARK   43  A    between atoms: _100  and  _101
REMARK   44  A    between atoms: _101  and  _102
REMARK   45  A    between atoms: _102  and  _103
REMARK   46  A    between atoms: _113  and  _114
REMARK   47  A    between atoms: _119  and  _121
REMARK   48  A    between atoms: _121  and  _122
REMARK   49  A    between atoms: _121  and  _124
REMARK   50  A    between atoms: _124  and  _125
REMARK   51  A    between atoms: _125  and  _126
REMARK   52  A    between atoms: _129  and  _131
REMARK   53  A    between atoms: _131  and  _132
REMARK   54  A    between atoms: _135  and  _137
REMARK   55  A    between atoms: _137  and  _138
REMARK   56  A    between atoms: _137  and  _140
REMARK   57  A    between atoms: _143  and  _145
REMARK   58  A    between atoms: _145  and  _146
REMARK   59  A    between atoms: _145  and  _148
REMARK   60  A    between atoms: _148  and  _149
REMARK   61  A    between atoms: _155  and  _157
REMARK   62  A    between atoms: _157  and  _158
REMARK   63  A    between atoms: _157  and  _160
REMARK   64  A    between atoms: _160  and  _161
REMARK   65  A    between atoms: _164  and  _166
REMARK   66  A    between atoms: _166  and  _167
REMARK   67  A    between atoms: _166  and  _169
REMARK   68  A    between atoms: _169  and  _170
REMARK   69  A    between atoms: _176  and  _178
REMARK   70  A    between atoms: _178  and  _179
REMARK   71  A    between atoms: _178  and  _181
REMARK   72  A    between atoms: _181  and  _182
REMARK   73  A    between atoms: _185  and  _187
REMARK   74  A    between atoms: _187  and  _188
REMARK   75  A    between atoms: _187  and  _190
REMARK   76  A    between atoms: _190  and  _191
REMARK   77  A    between atoms: _191  and  _192
REMARK   78  A    between atoms: _197  and  _199
REMARK   79  A    between atoms: _199  and  _200
REMARK   80  A    between atoms: _199  and  _202
REMARK   81  A    between atoms: _202  and  _203
REMARK   82  A    between atoms: _208  and  _210
REMARK   83  A    between atoms: _210  and  _211
REMARK   84  A    between atoms: _210  and  _213
REMARK   85  A    between atoms: _213  and  _214
REMARK   86  A    between atoms: _217  and  _219
REMARK   87  A    between atoms: _219  and  _220
REMARK   88  A    between atoms: _219  and  _222
REMARK   89  A    between atoms: _222  and  _223
REMARK   90  A    between atoms: _228  and  _230
REMARK   91  A    between atoms: _230  and  _231
REMARK   92  A    between atoms: _230  and  _233
REMARK   93  A    between atoms: _233  and  _234
REMARK   94  A    between atoms: _237  and  _239
REMARK   95  A    between atoms: _239  and  _240
REMARK   96  A    between atoms: _239  and  _242
REMARK   97  A    between atoms: _245  and  _247
REMARK   98  A    between atoms: _247  and  _248
REMARK   99  A    between atoms: _247  and  _250
REMARK  100  A    between atoms: _250  and  _251
REMARK  101  A    between atoms: _257  and  _259
REMARK  102  A    between atoms: _259  and  _260
REMARK  103  A    between atoms: _259  and  _262
REMARK  104  A    between atoms: _265  and  _267
REMARK  105  A    between atoms: _267  and  _268
REMARK  106  A    between atoms: _267  and  _270
REMARK  107  A    between atoms: _273  and  _275
REMARK  108  A    between atoms: _275  and  _276
REMARK  109  A    between atoms: _278  and  _280
REMARK  110  A    between atoms: _280  and  _281
REMARK  111  A    between atoms: _280  and  _283
REMARK  112  A    between atoms: _283  and  _284
REMARK  113  A    between atoms: _287  and  _289
REMARK  114  A    between atoms: _289  and  _290
REMARK  115  A    between atoms: _289  and  _292
REMARK  116  A    between atoms: _292  and  _293
REMARK  117  A    between atoms: _295  and  _297
REMARK  118  A    between atoms: _297  and  _298
REMARK  119  A    between atoms: _297  and  _300
REMARK  120  A    between atoms: _300  and  _301
REMARK  121  A    between atoms: _304  and  _306
REMARK  122  A    between atoms: _306  and  _307
REMARK  123  A    between atoms: _310  and  _312
REMARK  124  A    between atoms: _312  and  _313
REMARK  125  A    between atoms: _312  and  _315
REMARK  126  A    between atoms: _318  and  _320
REMARK  127  A    between atoms: _320  and  _321
REMARK  128  A    between atoms: _320  and  _323
REMARK  129  A    between atoms: _323  and  _324
REMARK  130  A    between atoms: _329  and  _330
REMARK  131  A    between atoms: _332  and  _334
REMARK  132  A    between atoms: _334  and  _335
REMARK  133  A    between atoms: _334  and  _337
REMARK  134  A    between atoms: _337  and  _338
REMARK  135  A    between atoms: _344  and  _346
REMARK  136  A    between atoms: _346  and  _347
REMARK  137  A    between atoms: _346  and  _349
REMARK  138  A    between atoms: _349  and  _350
REMARK  139  A    between atoms: _353  and  _355
REMARK  140  A    between atoms: _355  and  _356
REMARK  141  A    between atoms: _355  and  _358
REMARK  142  A    between atoms: _360  and  _362
REMARK  143  A    between atoms: _362  and  _363
REMARK  144  A    between atoms: _362  and  _365
REMARK  145  A    between atoms: _365  and  _366
REMARK  146  A    between atoms: _371  and  _373
REMARK  147  A    between atoms: _373  and  _374
REMARK  148  A    between atoms: _373  and  _376
REMARK  149  A    between atoms: _376  and  _377
REMARK  150  A    between atoms: _380  and  _382
REMARK  151  A    between atoms: _382  and  _383
REMARK  152  A    between atoms: _382  and  _385
REMARK  153  A    between atoms: _385  and  _386
REMARK  154  A    between atoms: _386  and  _387
REMARK  155  A    between atoms: _390  and  _392
REMARK  156  A    between atoms: _392  and  _393
REMARK  157  A    between atoms: _392  and  _395
REMARK  158  A    between atoms: _395  and  _396
REMARK  159  A    between atoms: _399  and  _401
REMARK  160  A    between atoms: _401  and  _402
REMARK  161  A    between atoms: _401  and  _404
REMARK  162  A    between atoms: _407  and  _409
REMARK  163  A    between atoms: _409  and  _410
REMARK  164  A    between atoms: _412  and  _414
REMARK  165  A    between atoms: _414  and  _415
REMARK  166  A    between atoms: _414  and  _417
REMARK  167  A    between atoms: _420  and  _422
REMARK  168  A    between atoms: _422  and  _423
REMARK  169  A    between atoms: _422  and  _425
REMARK  170  A    between atoms: _425  and  _426
REMARK  171  A    between atoms: _431  and  _433
REMARK  172  A    between atoms: _433  and  _434
REMARK  173  A    between atoms: _433  and  _436
REMARK  174  A    between atoms: _436  and  _437
REMARK  175  A    between atoms: _437  and  _438
REMARK  176  A    between atoms: _443  and  _445
REMARK  177  A    between atoms: _445  and  _446
REMARK  178  A    between atoms: _445  and  _448
REMARK  179  A    between atoms: _448  and  _449
REMARK  180  A    between atoms: _454  and  _455
REMARK  181  A    between atoms: _457  and  _459
REMARK  182  A    between atoms: _459  and  _460
REMARK  183  A    between atoms: _459  and  _462
REMARK  184  A    between atoms: _462  and  _463
REMARK  185  A    between atoms: _465  and  _467
REMARK  186  A    between atoms: _467  and  _468
REMARK  187  A    between atoms: _467  and  _470
REMARK  188  A    between atoms: _470  and  _471
REMARK  189  A    between atoms: _474  and  _476
REMARK  190  A    between atoms: _476  and  _477
REMARK  191  A    between atoms: _476  and  _479
REMARK  192  A    between atoms: _479  and  _480
REMARK  193  A    between atoms: _480  and  _481
REMARK  194  A    between atoms: _484  and  _486
REMARK  195  A    between atoms: _486  and  _487
REMARK  196  A    between atoms: _486  and  _489
REMARK  197  A    between atoms: _489  and  _490
REMARK  198  A    between atoms: _496  and  _498
REMARK  199  A    between atoms: _498  and  _499
REMARK                            x       y       z     vdW  Elec       q    Type
REMARK                         _______ _______ _______ _____ _____    ______ ____
ROOT
ATOM      1  O   HOH     1     -15.624  35.684 -32.681  0.00  0.00    +0.000 OA
ENDROOT
TORSDOF 0
REMARK  Name = ../refined-set-2016/1szd/1szd_pocket.pdb
REMARK  199 active torsions:
REMARK  status: ('A' for Active; 'I' for Inactive)
REMARK    1  A    between atoms: _1  and  _3
REMARK    2  A    between atoms: _3  and  _4
REMARK    3  A    between atoms: _3  and  _6
REMARK    4  A    between atoms: _9  and  _11
REMARK    5  A    between atoms: _11  and  _12
REMARK    6  A    between atoms: _11  and  _14
REMARK    7  A    between atoms: _17  and  _19
REMARK    8  A    between atoms: _19  and  _20
REMARK    9  A    between atoms: _22  and  _24
REMARK   10  A    between atoms: _24  and  _25
REMARK   11  A    between atoms: _28  and  _30
REMARK   12  A    between atoms: _30  and  _31
REMARK   13  A    between atoms: _33  and  _35
REMARK   14  A    between atoms: _35  and  _36
REMARK   15  A    between atoms: _35  and  _38
REMARK   16  A    between atoms: _38  and  _39
REMARK   17  A    between atoms: _42  and  _44
REMARK   18  A    between atoms: _44  and  _45
REMARK   19  A    between atoms: _44  and  _47
REMARK   20  A    between atoms: _47  and  _48
REMARK   21  A    between atoms: _50  and  _52
REMARK   22  A    between atoms: _52  and  _53
REMARK   23  A    between atoms: _52  and  _55
REMARK   24  A    between atoms: _55  and  _56
REMARK   25  A    between atoms: _59  and  _61
REMARK   26  A    between atoms: _61  and  _62
REMARK   27  A    between atoms: _61  and  _64
REMARK   28  A    between atoms: _64  and  _65
REMARK   29  A    between atoms: _67  and  _69
REMARK   30  A    between atoms: _69  and  _70
REMARK   31  A    between atoms: _69  and  _72
REMARK   32  A    between atoms: _74  and  _76
REMARK   33  A    between atoms: _76  and  _77
REMARK   34  A    between atoms: _76  and  _79
REMARK   35  A    between atoms: _79  and  _80
REMARK   36  A    between atoms: _83  and  _85
REMARK   37  A    between atoms: _85  and  _86
REMARK   38  A    between atoms: _85  and  _88
REMARK   39  A    between atoms: _88  and  _89
REMARK   40  A    between atoms: _95  and  _97
REMARK   41  A    between atoms: _97  and  _98
REMARK   42  A    between atoms: _97  and  _100
REMARK   43  A    between atoms: _100  and  _101
REMARK   44  A    between atoms: _101  and  _102
REMARK   45  A    between atoms: _102  and  _103
REMARK   46  A    between atoms: _113  and  _114
REMARK   47  A    between atoms: _119  and  _121
REMARK   48  A    between atoms: _121  and  _122
REMARK   49  A    between atoms: _121  and  _124
REMARK   50  A    between atoms: _124  and  _125
REMARK   51  A    between atoms: _125  and  _126
REMARK   52  A    between atoms: _129  and  _131
REMARK   53  A    between atoms: _131  and  _132
REMARK   54  A    between atoms: _135  and  _137
REMARK   55  A    between atoms: _137  and  _138
REMARK   56  A    between atoms: _137  and  _140
REMARK   57  A    between atoms: _143  and  _145
REMARK   58  A    between atoms: _145  and  _146
REMARK   59  A    between atoms: _145  and  _148
REMARK   60  A    between atoms: _148  and  _149
REMARK   61  A    between atoms: _155  and  _157
REMARK   62  A    between atoms: _157  and  _158
REMARK   63  A    between atoms: _157  and  _160
REMARK   64  A    between atoms: _160  and  _161
REMARK   65  A    between atoms: _164  and  _166
REMARK   66  A    between atoms: _166  and  _167
REMARK   67  A    between atoms: _166  and  _169
REMARK   68  A    between atoms: _169  and  _170
REMARK   69  A    between atoms: _176  and  _178
REMARK   70  A    between atoms: _178  and  _179
REMARK   71  A    between atoms: _178  and  _181
REMARK   72  A    between atoms: _181  and  _182
REMARK   73  A    between atoms: _185  and  _187
REMARK   74  A    between atoms: _187  and  _188
REMARK   75  A    between atoms: _187  and  _190
REMARK   76  A    between atoms: _190  and  _191
REMARK   77  A    between atoms: _191  and  _192
REMARK   78  A    between atoms: _197  and  _199
REMARK   79  A    between atoms: _199  and  _200
REMARK   80  A    between atoms: _199  and  _202
REMARK   81  A    between atoms: _202  and  _203
REMARK   82  A    between atoms: _208  and  _210
REMARK   83  A    between atoms: _210  and  _211
REMARK   84  A    between atoms: _210  and  _213
REMARK   85  A    between atoms: _213  and  _214
REMARK   86  A    between atoms: _217  and  _219
REMARK   87  A    between atoms: _219  and  _220
REMARK   88  A    between atoms: _219  and  _222
REMARK   89  A    between atoms: _222  and  _223
REMARK   90  A    between atoms: _228  and  _230
REMARK   91  A    between atoms: _230  and  _231
REMARK   92  A    between atoms: _230  and  _233
REMARK   93  A    between atoms: _233  and  _234
REMARK   94  A    between atoms: _237  and  _239
REMARK   95  A    between atoms: _239  and  _240
REMARK   96  A    between atoms: _239  and  _242
REMARK   97  A    between atoms: _245  and  _247
REMARK   98  A    between atoms: _247  and  _248
REMARK   99  A    between atoms: _247  and  _250
REMARK  100  A    between atoms: _250  and  _251
REMARK  101  A    between atoms: _257  and  _259
REMARK  102  A    between atoms: _259  and  _260
REMARK  103  A    between atoms: _259  and  _262
REMARK  104  A    between atoms: _265  and  _267
REMARK  105  A    between atoms: _267  and  _268
REMARK  106  A    between atoms: _267  and  _270
REMARK  107  A    between atoms: _273  and  _275
REMARK  108  A    between atoms: _275  and  _276
REMARK  109  A    between atoms: _278  and  _280
REMARK  110  A    between atoms: _280  and  _281
REMARK  111  A    between atoms: _280  and  _283
REMARK  112  A    between atoms: _283  and  _284
REMARK  113  A    between atoms: _287  and  _289
REMARK  114  A    between atoms: _289  and  _290
REMARK  115  A    between atoms: _289  and  _292
REMARK  116  A    between atoms: _292  and  _293
REMARK  117  A    between atoms: _295  and  _297
REMARK  118  A    between atoms: _297  and  _298
REMARK  119  A    between atoms: _297  and  _300
REMARK  120  A    between atoms: _300  and  _301
REMARK  121  A    between atoms: _304  and  _306
REMARK  122  A    between atoms: _306  and  _307
REMARK  123  A    between atoms: _310  and  _312
REMARK  124  A    between atoms: _312  and  _313
REMARK  125  A    between atoms: _312  and  _315
REMARK  126  A    between atoms: _318  and  _320
REMARK  127  A    between atoms: _320  and  _321
REMARK  128  A    between atoms: _320  and  _323
REMARK  129  A    between atoms: _323  and  _324
REMARK  130  A    between atoms: _329  and  _330
REMARK  131  A    between atoms: _332  and  _334
REMARK  132  A    between atoms: _334  and  _335
REMARK  133  A    between atoms: _334  and  _337
REMARK  134  A    between atoms: _337  and  _338
REMARK  135  A    between atoms: _344  and  _346
REMARK  136  A    between atoms: _346  and  _347
REMARK  137  A    between atoms: _346  and  _349
REMARK  138  A    between atoms: _349  and  _350
REMARK  139  A    between atoms: _353  and  _355
REMARK  140  A    between atoms: _355  and  _356
REMARK  141  A    between atoms: _355  and  _358
REMARK  142  A    between atoms: _360  and  _362
REMARK  143  A    between atoms: _362  and  _363
REMARK  144  A    between atoms: _362  and  _365
REMARK  145  A    between atoms: _365  and  _366
REMARK  146  A    between atoms: _371  and  _373
REMARK  147  A    between atoms: _373  and  _374
REMARK  148  A    between atoms: _373  and  _376
REMARK  149  A    between atoms: _376  and  _377
REMARK  150  A    between atoms: _380  and  _382
REMARK  151  A    between atoms: _382  and  _383
REMARK  152  A    between atoms: _382  and  _385
REMARK  153  A    between atoms: _385  and  _386
REMARK  154  A    between atoms: _386  and  _387
REMARK  155  A    between atoms: _390  and  _392
REMARK  156  A    between atoms: _392  and  _393
REMARK  157  A    between atoms: _392  and  _395
REMARK  158  A    between atoms: _395  and  _396
REMARK  159  A    between atoms: _399  and  _401
REMARK  160  A    between atoms: _401  and  _402
REMARK  161  A    between atoms: _401  and  _404
REMARK  162  A    between atoms: _407  and  _409
REMARK  163  A    between atoms: _409  and  _410
REMARK  164  A    between atoms: _412  and  _414
REMARK  165  A    between atoms: _414  and  _415
REMARK  166  A    between atoms: _414  and  _417
REMARK  167  A    between atoms: _420  and  _422
REMARK  168  A    between atoms: _422  and  _423
REMARK  169  A    between atoms: _422  and  _425
REMARK  170  A    between atoms: _425  and  _426
REMARK  171  A    between atoms: _431  and  _433
REMARK  172  A    between atoms: _433  and  _434
REMARK  173  A    between atoms: _433  and  _436
REMARK  174  A    between atoms: _436  and  _437
REMARK  175  A    between atoms: _437  and  _438
REMARK  176  A    between atoms: _443  and  _445
REMARK  177  A    between atoms: _445  and  _446
REMARK  178  A    between atoms: _445  and  _448
REMARK  179  A    between atoms: _448  and  _449
REMARK  180  A    between atoms: _454  and  _455
REMARK  181  A    between atoms: _457  and  _459
REMARK  182  A    between atoms: _459  and  _460
REMARK  183  A    between atoms: _459  and  _462
REMARK  184  A    between atoms: _462  and  _463
REMARK  185  A    between atoms: _465  and  _467
REMARK  186  A    between atoms: _467  and  _468
REMARK  187  A    between atoms: _467  and  _470
REMARK  188  A    between atoms: _470  and  _471
REMARK  189  A    between atoms: _474  and  _476
REMARK  190  A    between atoms: _476  and  _477
REMARK  191  A    between atoms: _476  and  _479
REMARK  192  A    between atoms: _479  and  _480
REMARK  193  A    between atoms: _480  and  _481
REMARK  194  A    between atoms: _484  and  _486
REMARK  195  A    between atoms: _486  and  _487
REMARK  196  A    between atoms: _486  and  _489
REMARK  197  A    between atoms: _489  and  _490
REMARK  198  A    between atoms: _496  and  _498
REMARK  199  A    between atoms: _498  and  _499
REMARK                            x       y       z     vdW  Elec       q    Type
REMARK                         _______ _______ _______ _____ _____    ______ ____
ROOT
ATOM      1  O   HOH     1      -7.732  41.549 -43.566  0.00  0.00    +0.000 OA
ENDROOT
TORSDOF 0
REMARK  Name = ../refined-set-2016/1szd/1szd_pocket.pdb
REMARK  199 active torsions:
REMARK  status: ('A' for Active; 'I' for Inactive)
REMARK    1  A    between atoms: _1  and  _3
REMARK    2  A    between atoms: _3  and  _4
REMARK    3  A    between atoms: _3  and  _6
REMARK    4  A    between atoms: _9  and  _11
REMARK    5  A    between atoms: _11  and  _12
REMARK    6  A    between atoms: _11  and  _14
REMARK    7  A    between atoms: _17  and  _19
REMARK    8  A    between atoms: _19  and  _20
REMARK    9  A    between atoms: _22  and  _24
REMARK   10  A    between atoms: _24  and  _25
REMARK   11  A    between atoms: _28  and  _30
REMARK   12  A    between atoms: _30  and  _31
REMARK   13  A    between atoms: _33  and  _35
REMARK   14  A    between atoms: _35  and  _36
REMARK   15  A    between atoms: _35  and  _38
REMARK   16  A    between atoms: _38  and  _39
REMARK   17  A    between atoms: _42  and  _44
REMARK   18  A    between atoms: _44  and  _45
REMARK   19  A    between atoms: _44  and  _47
REMARK   20  A    between atoms: _47  and  _48
REMARK   21  A    between atoms: _50  and  _52
REMARK   22  A    between atoms: _52  and  _53
REMARK   23  A    between atoms: _52  and  _55
REMARK   24  A    between atoms: _55  and  _56
REMARK   25  A    between atoms: _59  and  _61
REMARK   26  A    between atoms: _61  and  _62
REMARK   27  A    between atoms: _61  and  _64
REMARK   28  A    between atoms: _64  and  _65
REMARK   29  A    between atoms: _67  and  _69
REMARK   30  A    between atoms: _69  and  _70
REMARK   31  A    between atoms: _69  and  _72
REMARK   32  A    between atoms: _74  and  _76
REMARK   33  A    between atoms: _76  and  _77
REMARK   34  A    between atoms: _76  and  _79
REMARK   35  A    between atoms: _79  and  _80
REMARK   36  A    between atoms: _83  and  _85
REMARK   37  A    between atoms: _85  and  _86
REMARK   38  A    between atoms: _85  and  _88
REMARK   39  A    between atoms: _88  and  _89
REMARK   40  A    between atoms: _95  and  _97
REMARK   41  A    between atoms: _97  and  _98
REMARK   42  A    between atoms: _97  and  _100
REMARK   43  A    between atoms: _100  and  _101
REMARK   44  A    between atoms: _101  and  _102
REMARK   45  A    between atoms: _102  and  _103
REMARK   46  A    between atoms: _113  and  _114
REMARK   47  A    between atoms: _119  and  _121
REMARK   48  A    between atoms: _121  and  _122
REMARK   49  A    between atoms: _121  and  _124
REMARK   50  A    between atoms: _124  and  _125
REMARK   51  A    between atoms: _125  and  _126
REMARK   52  A    between atoms: _129  and  _131
REMARK   53  A    between atoms: _131  and  _132
REMARK   54  A    between atoms: _135  and  _137
REMARK   55  A    between atoms: _137  and  _138
REMARK   56  A    between atoms: _137  and  _140
REMARK   57  A    between atoms: _143  and  _145
REMARK   58  A    between atoms: _145  and  _146
REMARK   59  A    between atoms: _145  and  _148
REMARK   60  A    between atoms: _148  and  _149
REMARK   61  A    between atoms: _155  and  _157
REMARK   62  A    between atoms: _157  and  _158
REMARK   63  A    between atoms: _157  and  _160
REMARK   64  A    between atoms: _160  and  _161
REMARK   65  A    between atoms: _164  and  _166
REMARK   66  A    between atoms: _166  and  _167
REMARK   67  A    between atoms: _166  and  _169
REMARK   68  A    between atoms: _169  and  _170
REMARK   69  A    between atoms: _176  and  _178
REMARK   70  A    between atoms: _178  and  _179
REMARK   71  A    between atoms: _178  and  _181
REMARK   72  A    between atoms: _181  and  _182
REMARK   73  A    between atoms: _185  and  _187
REMARK   74  A    between atoms: _187  and  _188
REMARK   75  A    between atoms: _187  and  _190
REMARK   76  A    between atoms: _190  and  _191
REMARK   77  A    between atoms: _191  and  _192
REMARK   78  A    between atoms: _197  and  _199
REMARK   79  A    between atoms: _199  and  _200
REMARK   80  A    between atoms: _199  and  _202
REMARK   81  A    between atoms: _202  and  _203
REMARK   82  A    between atoms: _208  and  _210
REMARK   83  A    between atoms: _210  and  _211
REMARK   84  A    between atoms: _210  and  _213
REMARK   85  A    between atoms: _213  and  _214
REMARK   86  A    between atoms: _217  and  _219
REMARK   87  A    between atoms: _219  and  _220
REMARK   88  A    between atoms: _219  and  _222
REMARK   89  A    between atoms: _222  and  _223
REMARK   90  A    between atoms: _228  and  _230
REMARK   91  A    between atoms: _230  and  _231
REMARK   92  A    between atoms: _230  and  _233
REMARK   93  A    between atoms: _233  and  _234
REMARK   94  A    between atoms: _237  and  _239
REMARK   95  A    between atoms: _239  and  _240
REMARK   96  A    between atoms: _239  and  _242
REMARK   97  A    between atoms: _245  and  _247
REMARK   98  A    between atoms: _247  and  _248
REMARK   99  A    between atoms: _247  and  _250
REMARK  100  A    between atoms: _250  and  _251
REMARK  101  A    between atoms: _257  and  _259
REMARK  102  A    between atoms: _259  and  _260
REMARK  103  A    between atoms: _259  and  _262
REMARK  104  A    between atoms: _265  and  _267
REMARK  105  A    between atoms: _267  and  _268
REMARK  106  A    between atoms: _267  and  _270
REMARK  107  A    between atoms: _273  and  _275
REMARK  108  A    between atoms: _275  and  _276
REMARK  109  A    between atoms: _278  and  _280
REMARK  110  A    between atoms: _280  and  _281
REMARK  111  A    between atoms: _280  and  _283
REMARK  112  A    between atoms: _283  and  _284
REMARK  113  A    between atoms: _287  and  _289
REMARK  114  A    between atoms: _289  and  _290
REMARK  115  A    between atoms: _289  and  _292
REMARK  116  A    between atoms: _292  and  _293
REMARK  117  A    between atoms: _295  and  _297
REMARK  118  A    between atoms: _297  and  _298
REMARK  119  A    between atoms: _297  and  _300
REMARK  120  A    between atoms: _300  and  _301
REMARK  121  A    between atoms: _304  and  _306
REMARK  122  A    between atoms: _306  and  _307
REMARK  123  A    between atoms: _310  and  _312
REMARK  124  A    between atoms: _312  and  _313
REMARK  125  A    between atoms: _312  and  _315
REMARK  126  A    between atoms: _318  and  _320
REMARK  127  A    between atoms: _320  and  _321
REMARK  128  A    between atoms: _320  and  _323
REMARK  129  A    between atoms: _323  and  _324
REMARK  130  A    between atoms: _329  and  _330
REMARK  131  A    between atoms: _332  and  _334
REMARK  132  A    between atoms: _334  and  _335
REMARK  133  A    between atoms: _334  and  _337
REMARK  134  A    between atoms: _337  and  _338
REMARK  135  A    between atoms: _344  and  _346
REMARK  136  A    between atoms: _346  and  _347
REMARK  137  A    between atoms: _346  and  _349
REMARK  138  A    between atoms: _349  and  _350
REMARK  139  A    between atoms: _353  and  _355
REMARK  140  A    between atoms: _355  and  _356
REMARK  141  A    between atoms: _355  and  _358
REMARK  142  A    between atoms: _360  and  _362
REMARK  143  A    between atoms: _362  and  _363
REMARK  144  A    between atoms: _362  and  _365
REMARK  145  A    between atoms: _365  and  _366
REMARK  146  A    between atoms: _371  and  _373
REMARK  147  A    between atoms: _373  and  _374
REMARK  148  A    between atoms: _373  and  _376
REMARK  149  A    between atoms: _376  and  _377
REMARK  150  A    between atoms: _380  and  _382
REMARK  151  A    between atoms: _382  and  _383
REMARK  152  A    between atoms: _382  and  _385
REMARK  153  A    between atoms: _385  and  _386
REMARK  154  A    between atoms: _386  and  _387
REMARK  155  A    between atoms: _390  and  _392
REMARK  156  A    between atoms: _392  and  _393
REMARK  157  A    between atoms: _392  and  _395
REMARK  158  A    between atoms: _395  and  _396
REMARK  159  A    between atoms: _399  and  _401
REMARK  160  A    between atoms: _401  and  _402
REMARK  161  A    between atoms: _401  and  _404
REMARK  162  A    between atoms: _407  and  _409
REMARK  163  A    between atoms: _409  and  _410
REMARK  164  A    between atoms: _412  and  _414
REMARK  165  A    between atoms: _414  and  _415
REMARK  166  A    between atoms: _414  and  _417
REMARK  167  A    between atoms: _420  and  _422
REMARK  168  A    between atoms: _422  and  _423
REMARK  169  A    between atoms: _422  and  _425
REMARK  170  A    between atoms: _425  and  _426
REMARK  171  A    between atoms: _431  and  _433
REMARK  172  A    between atoms: _433  and  _434
REMARK  173  A    between atoms: _433  and  _436
REMARK  174  A    between atoms: _436  and  _437
REMARK  175  A    between atoms: _437  and  _438
REMARK  176  A    between atoms: _443  and  _445
REMARK  177  A    between atoms: _445  and  _446
REMARK  178  A    between atoms: _445  and  _448
REMARK  179  A    between atoms: _448  and  _449
REMARK  180  A    between atoms: _454  and  _455
REMARK  181  A    between atoms: _457  and  _459
REMARK  182  A    between atoms: _459  and  _460
REMARK  183  A    between atoms: _459  and  _462
REMARK  184  A    between atoms: _462  and  _463
REMARK  185  A    between atoms: _465  and  _467
REMARK  186  A    between atoms: _467  and  _468
REMARK  187  A    between atoms: _467  and  _470
REMARK  188  A    between atoms: _470  and  _471
REMARK  189  A    between atoms: _474  and  _476
REMARK  190  A    between atoms: _476  and  _477
REMARK  191  A    between atoms: _476  and  _479
REMARK  192  A    between atoms: _479  and  _480
REMARK  193  A    between atoms: _480  and  _481
REMARK  194  A    between atoms: _484  and  _486
REMARK  195  A    between atoms: _486  and  _487
REMARK  196  A    between atoms: _486  and  _489
REMARK  197  A    between atoms: _489  and  _490
REMARK  198  A    between atoms: _496  and  _498
REMARK  199  A    between atoms: _498  and  _499
REMARK                            x       y       z     vdW  Elec       q    Type
REMARK                         _______ _______ _______ _____ _____    ______ ____
ROOT
ATOM      1  O   HOH     1      -4.364  31.888 -44.792  0.00  0.00    +0.000 OA
ENDROOT
TORSDOF 0
REMARK  Name = ../refined-set-2016/1szd/1szd_pocket.pdb
REMARK  199 active torsions:
REMARK  status: ('A' for Active; 'I' for Inactive)
REMARK    1  A    between atoms: _1  and  _3
REMARK    2  A    between atoms: _3  and  _4
REMARK    3  A    between atoms: _3  and  _6
REMARK    4  A    between atoms: _9  and  _11
REMARK    5  A    between atoms: _11  and  _12
REMARK    6  A    between atoms: _11  and  _14
REMARK    7  A    between atoms: _17  and  _19
REMARK    8  A    between atoms: _19  and  _20
REMARK    9  A    between atoms: _22  and  _24
REMARK   10  A    between atoms: _24  and  _25
REMARK   11  A    between atoms: _28  and  _30
REMARK   12  A    between atoms: _30  and  _31
REMARK   13  A    between atoms: _33  and  _35
REMARK   14  A    between atoms: _35  and  _36
REMARK   15  A    between atoms: _35  and  _38
REMARK   16  A    between atoms: _38  and  _39
REMARK   17  A    between atoms: _42  and  _44
REMARK   18  A    between atoms: _44  and  _45
REMARK   19  A    between atoms: _44  and  _47
REMARK   20  A    between atoms: _47  and  _48
REMARK   21  A    between atoms: _50  and  _52
REMARK   22  A    between atoms: _52  and  _53
REMARK   23  A    between atoms: _52  and  _55
REMARK   24  A    between atoms: _55  and  _56
REMARK   25  A    between atoms: _59  and  _61
REMARK   26  A    between atoms: _61  and  _62
REMARK   27  A    between atoms: _61  and  _64
REMARK   28  A    between atoms: _64  and  _65
REMARK   29  A    between atoms: _67  and  _69
REMARK   30  A    between atoms: _69  and  _70
REMARK   31  A    between atoms: _69  and  _72
REMARK   32  A    between atoms: _74  and  _76
REMARK   33  A    between atoms: _76  and  _77
REMARK   34  A    between atoms: _76  and  _79
REMARK   35  A    between atoms: _79  and  _80
REMARK   36  A    between atoms: _83  and  _85
REMARK   37  A    between atoms: _85  and  _86
REMARK   38  A    between atoms: _85  and  _88
REMARK   39  A    between atoms: _88  and  _89
REMARK   40  A    between atoms: _95  and  _97
REMARK   41  A    between atoms: _97  and  _98
REMARK   42  A    between atoms: _97  and  _100
REMARK   43  A    between atoms: _100  and  _101
REMARK   44  A    between atoms: _101  and  _102
REMARK   45  A    between atoms: _102  and  _103
REMARK   46  A    between atoms: _113  and  _114
REMARK   47  A    between atoms: _119  and  _121
REMARK   48  A    between atoms: _121  and  _122
REMARK   49  A    between atoms: _121  and  _124
REMARK   50  A    between atoms: _124  and  _125
REMARK   51  A    between atoms: _125  and  _126
REMARK   52  A    between atoms: _129  and  _131
REMARK   53  A    between atoms: _131  and  _132
REMARK   54  A    between atoms: _135  and  _137
REMARK   55  A    between atoms: _137  and  _138
REMARK   56  A    between atoms: _137  and  _140
REMARK   57  A    between atoms: _143  and  _145
REMARK   58  A    between atoms: _145  and  _146
REMARK   59  A    between atoms: _145  and  _148
REMARK   60  A    between atoms: _148  and  _149
REMARK   61  A    between atoms: _155  and  _157
REMARK   62  A    between atoms: _157  and  _158
REMARK   63  A    between atoms: _157  and  _160
REMARK   64  A    between atoms: _160  and  _161
REMARK   65  A    between atoms: _164  and  _166
REMARK   66  A    between atoms: _166  and  _167
REMARK   67  A    between atoms: _166  and  _169
REMARK   68  A    between atoms: _169  and  _170
REMARK   69  A    between atoms: _176  and  _178
REMARK   70  A    between atoms: _178  and  _179
REMARK   71  A    between atoms: _178  and  _181
REMARK   72  A    between atoms: _181  and  _182
REMARK   73  A    between atoms: _185  and  _187
REMARK   74  A    between atoms: _187  and  _188
REMARK   75  A    between atoms: _187  and  _190
REMARK   76  A    between atoms: _190  and  _191
REMARK   77  A    between atoms: _191  and  _192
REMARK   78  A    between atoms: _197  and  _199
REMARK   79  A    between atoms: _199  and  _200
REMARK   80  A    between atoms: _199  and  _202
REMARK   81  A    between atoms: _202  and  _203
REMARK   82  A    between atoms: _208  and  _210
REMARK   83  A    between atoms: _210  and  _211
REMARK   84  A    between atoms: _210  and  _213
REMARK   85  A    between atoms: _213  and  _214
REMARK   86  A    between atoms: _217  and  _219
REMARK   87  A    between atoms: _219  and  _220
REMARK   88  A    between atoms: _219  and  _222
REMARK   89  A    between atoms: _222  and  _223
REMARK   90  A    between atoms: _228  and  _230
REMARK   91  A    between atoms: _230  and  _231
REMARK   92  A    between atoms: _230  and  _233
REMARK   93  A    between atoms: _233  and  _234
REMARK   94  A    between atoms: _237  and  _239
REMARK   95  A    between atoms: _239  and  _240
REMARK   96  A    between atoms: _239  and  _242
REMARK   97  A    between atoms: _245  and  _247
REMARK   98  A    between atoms: _247  and  _248
REMARK   99  A    between atoms: _247  and  _250
REMARK  100  A    between atoms: _250  and  _251
REMARK  101  A    between atoms: _257  and  _259
REMARK  102  A    between atoms: _259  and  _260
REMARK  103  A    between atoms: _259  and  _262
REMARK  104  A    between atoms: _265  and  _267
REMARK  105  A    between atoms: _267  and  _268
REMARK  106  A    between atoms: _267  and  _270
REMARK  107  A    between atoms: _273  and  _275
REMARK  108  A    between atoms: _275  and  _276
REMARK  109  A    between atoms: _278  and  _280
REMARK  110  A    between atoms: _280  and  _281
REMARK  111  A    between atoms: _280  and  _283
REMARK  112  A    between atoms: _283  and  _284
REMARK  113  A    between atoms: _287  and  _289
REMARK  114  A    between atoms: _289  and  _290
REMARK  115  A    between atoms: _289  and  _292
REMARK  116  A    between atoms: _292  and  _293
REMARK  117  A    between atoms: _295  and  _297
REMARK  118  A    between atoms: _297  and  _298
REMARK  119  A    between atoms: _297  and  _300
REMARK  120  A    between atoms: _300  and  _301
REMARK  121  A    between atoms: _304  and  _306
REMARK  122  A    between atoms: _306  and  _307
REMARK  123  A    between atoms: _310  and  _312
REMARK  124  A    between atoms: _312  and  _313
REMARK  125  A    between atoms: _312  and  _315
REMARK  126  A    between atoms: _318  and  _320
REMARK  127  A    between atoms: _320  and  _321
REMARK  128  A    between atoms: _320  and  _323
REMARK  129  A    between atoms: _323  and  _324
REMARK  130  A    between atoms: _329  and  _330
REMARK  131  A    between atoms: _332  and  _334
REMARK  132  A    between atoms: _334  and  _335
REMARK  133  A    between atoms: _334  and  _337
REMARK  134  A    between atoms: _337  and  _338
REMARK  135  A    between atoms: _344  and  _346
REMARK  136  A    between atoms: _346  and  _347
REMARK  137  A    between atoms: _346  and  _349
REMARK  138  A    between atoms: _349  and  _350
REMARK  139  A    between atoms: _353  and  _355
REMARK  140  A    between atoms: _355  and  _356
REMARK  141  A    between atoms: _355  and  _358
REMARK  142  A    between atoms: _360  and  _362
REMARK  143  A    between atoms: _362  and  _363
REMARK  144  A    between atoms: _362  and  _365
REMARK  145  A    between atoms: _365  and  _366
REMARK  146  A    between atoms: _371  and  _373
REMARK  147  A    between atoms: _373  and  _374
REMARK  148  A    between atoms: _373  and  _376
REMARK  149  A    between atoms: _376  and  _377
REMARK  150  A    between atoms: _380  and  _382
REMARK  151  A    between atoms: _382  and  _383
REMARK  152  A    between atoms: _382  and  _385
REMARK  153  A    between atoms: _385  and  _386
REMARK  154  A    between atoms: _386  and  _387
REMARK  155  A    between atoms: _390  and  _392
REMARK  156  A    between atoms: _392  and  _393
REMARK  157  A    between atoms: _392  and  _395
REMARK  158  A    between atoms: _395  and  _396
REMARK  159  A    between atoms: _399  and  _401
REMARK  160  A    between atoms: _401  and  _402
REMARK  161  A    between atoms: _401  and  _404
REMARK  162  A    between atoms: _407  and  _409
REMARK  163  A    between atoms: _409  and  _410
REMARK  164  A    between atoms: _412  and  _414
REMARK  165  A    between atoms: _414  and  _415
REMARK  166  A    between atoms: _414  and  _417
REMARK  167  A    between atoms: _420  and  _422
REMARK  168  A    between atoms: _422  and  _423
REMARK  169  A    between atoms: _422  and  _425
REMARK  170  A    between atoms: _425  and  _426
REMARK  171  A    between atoms: _431  and  _433
REMARK  172  A    between atoms: _433  and  _434
REMARK  173  A    between atoms: _433  and  _436
REMARK  174  A    between atoms: _436  and  _437
REMARK  175  A    between atoms: _437  and  _438
REMARK  176  A    between atoms: _443  and  _445
REMARK  177  A    between atoms: _445  and  _446
REMARK  178  A    between atoms: _445  and  _448
REMARK  179  A    between atoms: _448  and  _449
REMARK  180  A    between atoms: _454  and  _455
REMARK  181  A    between atoms: _457  and  _459
REMARK  182  A    between atoms: _459  and  _460
REMARK  183  A    between atoms: _459  and  _462
REMARK  184  A    between atoms: _462  and  _463
REMARK  185  A    between atoms: _465  and  _467
REMARK  186  A    between atoms: _467  and  _468
REMARK  187  A    between atoms: _467  and  _470
REMARK  188  A    between atoms: _470  and  _471
REMARK  189  A    between atoms: _474  and  _476
REMARK  190  A    between atoms: _476  and  _477
REMARK  191  A    between atoms: _476  and  _479
REMARK  192  A    between atoms: _479  and  _480
REMARK  193  A    between atoms: _480  and  _481
REMARK  194  A    between atoms: _484  and  _486
REMARK  195  A    between atoms: _486  and  _487
REMARK  196  A    between atoms: _486  and  _489
REMARK  197  A    between atoms: _489  and  _490
REMARK  198  A    between atoms: _496  and  _498
REMARK  199  A    between atoms: _498  and  _499
REMARK                            x       y       z     vdW  Elec       q    Type
REMARK                         _______ _______ _______ _____ _____    ______ ____
ROOT
ATOM      1  O   HOH     1      -3.988  37.452 -45.300  0.00  0.00    +0.000 OA
ENDROOT
TORSDOF 0
REMARK  Name = ../refined-set-2016/1szd/1szd_pocket.pdb
REMARK  199 active torsions:
REMARK  status: ('A' for Active; 'I' for Inactive)
REMARK    1  A    between atoms: _1  and  _3
REMARK    2  A    between atoms: _3  and  _4
REMARK    3  A    between atoms: _3  and  _6
REMARK    4  A    between atoms: _9  and  _11
REMARK    5  A    between atoms: _11  and  _12
REMARK    6  A    between atoms: _11  and  _14
REMARK    7  A    between atoms: _17  and  _19
REMARK    8  A    between atoms: _19  and  _20
REMARK    9  A    between atoms: _22  and  _24
REMARK   10  A    between atoms: _24  and  _25
REMARK   11  A    between atoms: _28  and  _30
REMARK   12  A    between atoms: _30  and  _31
REMARK   13  A    between atoms: _33  and  _35
REMARK   14  A    between atoms: _35  and  _36
REMARK   15  A    between atoms: _35  and  _38
REMARK   16  A    between atoms: _38  and  _39
REMARK   17  A    between atoms: _42  and  _44
REMARK   18  A    between atoms: _44  and  _45
REMARK   19  A    between atoms: _44  and  _47
REMARK   20  A    between atoms: _47  and  _48
REMARK   21  A    between atoms: _50  and  _52
REMARK   22  A    between atoms: _52  and  _53
REMARK   23  A    between atoms: _52  and  _55
REMARK   24  A    between atoms: _55  and  _56
REMARK   25  A    between atoms: _59  and  _61
REMARK   26  A    between atoms: _61  and  _62
REMARK   27  A    between atoms: _61  and  _64
REMARK   28  A    between atoms: _64  and  _65
REMARK   29  A    between atoms: _67  and  _69
REMARK   30  A    between atoms: _69  and  _70
REMARK   31  A    between atoms: _69  and  _72
REMARK   32  A    between atoms: _74  and  _76
REMARK   33  A    between atoms: _76  and  _77
REMARK   34  A    between atoms: _76  and  _79
REMARK   35  A    between atoms: _79  and  _80
REMARK   36  A    between atoms: _83  and  _85
REMARK   37  A    between atoms: _85  and  _86
REMARK   38  A    between atoms: _85  and  _88
REMARK   39  A    between atoms: _88  and  _89
REMARK   40  A    between atoms: _95  and  _97
REMARK   41  A    between atoms: _97  and  _98
REMARK   42  A    between atoms: _97  and  _100
REMARK   43  A    between atoms: _100  and  _101
REMARK   44  A    between atoms: _101  and  _102
REMARK   45  A    between atoms: _102  and  _103
REMARK   46  A    between atoms: _113  and  _114
REMARK   47  A    between atoms: _119  and  _121
REMARK   48  A    between atoms: _121  and  _122
REMARK   49  A    between atoms: _121  and  _124
REMARK   50  A    between atoms: _124  and  _125
REMARK   51  A    between atoms: _125  and  _126
REMARK   52  A    between atoms: _129  and  _131
REMARK   53  A    between atoms: _131  and  _132
REMARK   54  A    between atoms: _135  and  _137
REMARK   55  A    between atoms: _137  and  _138
REMARK   56  A    between atoms: _137  and  _140
REMARK   57  A    between atoms: _143  and  _145
REMARK   58  A    between atoms: _145  and  _146
REMARK   59  A    between atoms: _145  and  _148
REMARK   60  A    between atoms: _148  and  _149
REMARK   61  A    between atoms: _155  and  _157
REMARK   62  A    between atoms: _157  and  _158
REMARK   63  A    between atoms: _157  and  _160
REMARK   64  A    between atoms: _160  and  _161
REMARK   65  A    between atoms: _164  and  _166
REMARK   66  A    between atoms: _166  and  _167
REMARK   67  A    between atoms: _166  and  _169
REMARK   68  A    between atoms: _169  and  _170
REMARK   69  A    between atoms: _176  and  _178
REMARK   70  A    between atoms: _178  and  _179
REMARK   71  A    between atoms: _178  and  _181
REMARK   72  A    between atoms: _181  and  _182
REMARK   73  A    between atoms: _185  and  _187
REMARK   74  A    between atoms: _187  and  _188
REMARK   75  A    between atoms: _187  and  _190
REMARK   76  A    between atoms: _190  and  _191
REMARK   77  A    between atoms: _191  and  _192
REMARK   78  A    between atoms: _197  and  _199
REMARK   79  A    between atoms: _199  and  _200
REMARK   80  A    between atoms: _199  and  _202
REMARK   81  A    between atoms: _202  and  _203
REMARK   82  A    between atoms: _208  and  _210
REMARK   83  A    between atoms: _210  and  _211
REMARK   84  A    between atoms: _210  and  _213
REMARK   85  A    between atoms: _213  and  _214
REMARK   86  A    between atoms: _217  and  _219
REMARK   87  A    between atoms: _219  and  _220
REMARK   88  A    between atoms: _219  and  _222
REMARK   89  A    between atoms: _222  and  _223
REMARK   90  A    between atoms: _228  and  _230
REMARK   91  A    between atoms: _230  and  _231
REMARK   92  A    between atoms: _230  and  _233
REMARK   93  A    between atoms: _233  and  _234
REMARK   94  A    between atoms: _237  and  _239
REMARK   95  A    between atoms: _239  and  _240
REMARK   96  A    between atoms: _239  and  _242
REMARK   97  A    between atoms: _245  and  _247
REMARK   98  A    between atoms: _247  and  _248
REMARK   99  A    between atoms: _247  and  _250
REMARK  100  A    between atoms: _250  and  _251
REMARK  101  A    between atoms: _257  and  _259
REMARK  102  A    between atoms: _259  and  _260
REMARK  103  A    between atoms: _259  and  _262
REMARK  104  A    between atoms: _265  and  _267
REMARK  105  A    between atoms: _267  and  _268
REMARK  106  A    between atoms: _267  and  _270
REMARK  107  A    between atoms: _273  and  _275
REMARK  108  A    between atoms: _275  and  _276
REMARK  109  A    between atoms: _278  and  _280
REMARK  110  A    between atoms: _280  and  _281
REMARK  111  A    between atoms: _280  and  _283
REMARK  112  A    between atoms: _283  and  _284
REMARK  113  A    between atoms: _287  and  _289
REMARK  114  A    between atoms: _289  and  _290
REMARK  115  A    between atoms: _289  and  _292
REMARK  116  A    between atoms: _292  and  _293
REMARK  117  A    between atoms: _295  and  _297
REMARK  118  A    between atoms: _297  and  _298
REMARK  119  A    between atoms: _297  and  _300
REMARK  120  A    between atoms: _300  and  _301
REMARK  121  A    between atoms: _304  and  _306
REMARK  122  A    between atoms: _306  and  _307
REMARK  123  A    between atoms: _310  and  _312
REMARK  124  A    between atoms: _312  and  _313
REMARK  125  A    between atoms: _312  and  _315
REMARK  126  A    between atoms: _318  and  _320
REMARK  127  A    between atoms: _320  and  _321
REMARK  128  A    between atoms: _320  and  _323
REMARK  129  A    between atoms: _323  and  _324
REMARK  130  A    between atoms: _329  and  _330
REMARK  131  A    between atoms: _332  and  _334
REMARK  132  A    between atoms: _334  and  _335
REMARK  133  A    between atoms: _334  and  _337
REMARK  134  A    between atoms: _337  and  _338
REMARK  135  A    between atoms: _344  and  _346
REMARK  136  A    between atoms: _346  and  _347
REMARK  137  A    between atoms: _346  and  _349
REMARK  138  A    between atoms: _349  and  _350
REMARK  139  A    between atoms: _353  and  _355
REMARK  140  A    between atoms: _355  and  _356
REMARK  141  A    between atoms: _355  and  _358
REMARK  142  A    between atoms: _360  and  _362
REMARK  143  A    between atoms: _362  and  _363
REMARK  144  A    between atoms: _362  and  _365
REMARK  145  A    between atoms: _365  and  _366
REMARK  146  A    between atoms: _371  and  _373
REMARK  147  A    between atoms: _373  and  _374
REMARK  148  A    between atoms: _373  and  _376
REMARK  149  A    between atoms: _376  and  _377
REMARK  150  A    between atoms: _380  and  _382
REMARK  151  A    between atoms: _382  and  _383
REMARK  152  A    between atoms: _382  and  _385
REMARK  153  A    between atoms: _385  and  _386
REMARK  154  A    between atoms: _386  and  _387
REMARK  155  A    between atoms: _390  and  _392
REMARK  156  A    between atoms: _392  and  _393
REMARK  157  A    between atoms: _392  and  _395
REMARK  158  A    between atoms: _395  and  _396
REMARK  159  A    between atoms: _399  and  _401
REMARK  160  A    between atoms: _401  and  _402
REMARK  161  A    between atoms: _401  and  _404
REMARK  162  A    between atoms: _407  and  _409
REMARK  163  A    between atoms: _409  and  _410
REMARK  164  A    between atoms: _412  and  _414
REMARK  165  A    between atoms: _414  and  _415
REMARK  166  A    between atoms: _414  and  _417
REMARK  167  A    between atoms: _420  and  _422
REMARK  168  A    between atoms: _422  and  _423
REMARK  169  A    between atoms: _422  and  _425
REMARK  170  A    between atoms: _425  and  _426
REMARK  171  A    between atoms: _431  and  _433
REMARK  172  A    between atoms: _433  and  _434
REMARK  173  A    between atoms: _433  and  _436
REMARK  174  A    between atoms: _436  and  _437
REMARK  175  A    between atoms: _437  and  _438
REMARK  176  A    between atoms: _443  and  _445
REMARK  177  A    between atoms: _445  and  _446
REMARK  178  A    between atoms: _445  and  _448
REMARK  179  A    between atoms: _448  and  _449
REMARK  180  A    between atoms: _454  and  _455
REMARK  181  A    between atoms: _457  and  _459
REMARK  182  A    between atoms: _459  and  _460
REMARK  183  A    between atoms: _459  and  _462
REMARK  184  A    between atoms: _462  and  _463
REMARK  185  A    between atoms: _465  and  _467
REMARK  186  A    between atoms: _467  and  _468
REMARK  187  A    between atoms: _467  and  _470
REMARK  188  A    between atoms: _470  and  _471
REMARK  189  A    between atoms: _474  and  _476
REMARK  190  A    between atoms: _476  and  _477
REMARK  191  A    between atoms: _476  and  _479
REMARK  192  A    between atoms: _479  and  _480
REMARK  193  A    between atoms: _480  and  _481
REMARK  194  A    between atoms: _484  and  _486
REMARK  195  A    between atoms: _486  and  _487
REMARK  196  A    between atoms: _486  and  _489
REMARK  197  A    between atoms: _489  and  _490
REMARK  198  A    between atoms: _496  and  _498
REMARK  199  A    between atoms: _498  and  _499
REMARK                            x       y       z     vdW  Elec       q    Type
REMARK                         _______ _______ _______ _____ _____    ______ ____
ROOT
ATOM      1  O   HOH     1     -12.806  40.958 -47.126  0.00  0.00    +0.000 OA
ENDROOT
TORSDOF 0
REMARK  Name = ../refined-set-2016/1szd/1szd_pocket.pdb
REMARK  199 active torsions:
REMARK  status: ('A' for Active; 'I' for Inactive)
REMARK    1  A    between atoms: _1  and  _3
REMARK    2  A    between atoms: _3  and  _4
REMARK    3  A    between atoms: _3  and  _6
REMARK    4  A    between atoms: _9  and  _11
REMARK    5  A    between atoms: _11  and  _12
REMARK    6  A    between atoms: _11  and  _14
REMARK    7  A    between atoms: _17  and  _19
REMARK    8  A    between atoms: _19  and  _20
REMARK    9  A    between atoms: _22  and  _24
REMARK   10  A    between atoms: _24  and  _25
REMARK   11  A    between atoms: _28  and  _30
REMARK   12  A    between atoms: _30  and  _31
REMARK   13  A    between atoms: _33  and  _35
REMARK   14  A    between atoms: _35  and  _36
REMARK   15  A    between atoms: _35  and  _38
REMARK   16  A    between atoms: _38  and  _39
REMARK   17  A    between atoms: _42  and  _44
REMARK   18  A    between atoms: _44  and  _45
REMARK   19  A    between atoms: _44  and  _47
REMARK   20  A    between atoms: _47  and  _48
REMARK   21  A    between atoms: _50  and  _52
REMARK   22  A    between atoms: _52  and  _53
REMARK   23  A    between atoms: _52  and  _55
REMARK   24  A    between atoms: _55  and  _56
REMARK   25  A    between atoms: _59  and  _61
REMARK   26  A    between atoms: _61  and  _62
REMARK   27  A    between atoms: _61  and  _64
REMARK   28  A    between atoms: _64  and  _65
REMARK   29  A    between atoms: _67  and  _69
REMARK   30  A    between atoms: _69  and  _70
REMARK   31  A    between atoms: _69  and  _72
REMARK   32  A    between atoms: _74  and  _76
REMARK   33  A    between atoms: _76  and  _77
REMARK   34  A    between atoms: _76  and  _79
REMARK   35  A    between atoms: _79  and  _80
REMARK   36  A    between atoms: _83  and  _85
REMARK   37  A    between atoms: _85  and  _86
REMARK   38  A    between atoms: _85  and  _88
REMARK   39  A    between atoms: _88  and  _89
REMARK   40  A    between atoms: _95  and  _97
REMARK   41  A    between atoms: _97  and  _98
REMARK   42  A    between atoms: _97  and  _100
REMARK   43  A    between atoms: _100  and  _101
REMARK   44  A    between atoms: _101  and  _102
REMARK   45  A    between atoms: _102  and  _103
REMARK   46  A    between atoms: _113  and  _114
REMARK   47  A    between atoms: _119  and  _121
REMARK   48  A    between atoms: _121  and  _122
REMARK   49  A    between atoms: _121  and  _124
REMARK   50  A    between atoms: _124  and  _125
REMARK   51  A    between atoms: _125  and  _126
REMARK   52  A    between atoms: _129  and  _131
REMARK   53  A    between atoms: _131  and  _132
REMARK   54  A    between atoms: _135  and  _137
REMARK   55  A    between atoms: _137  and  _138
REMARK   56  A    between atoms: _137  and  _140
REMARK   57  A    between atoms: _143  and  _145
REMARK   58  A    between atoms: _145  and  _146
REMARK   59  A    between atoms: _145  and  _148
REMARK   60  A    between atoms: _148  and  _149
REMARK   61  A    between atoms: _155  and  _157
REMARK   62  A    between atoms: _157  and  _158
REMARK   63  A    between atoms: _157  and  _160
REMARK   64  A    between atoms: _160  and  _161
REMARK   65  A    between atoms: _164  and  _166
REMARK   66  A    between atoms: _166  and  _167
REMARK   67  A    between atoms: _166  and  _169
REMARK   68  A    between atoms: _169  and  _170
REMARK   69  A    between atoms: _176  and  _178
REMARK   70  A    between atoms: _178  and  _179
REMARK   71  A    between atoms: _178  and  _181
REMARK   72  A    between atoms: _181  and  _182
REMARK   73  A    between atoms: _185  and  _187
REMARK   74  A    between atoms: _187  and  _188
REMARK   75  A    between atoms: _187  and  _190
REMARK   76  A    between atoms: _190  and  _191
REMARK   77  A    between atoms: _191  and  _192
REMARK   78  A    between atoms: _197  and  _199
REMARK   79  A    between atoms: _199  and  _200
REMARK   80  A    between atoms: _199  and  _202
REMARK   81  A    between atoms: _202  and  _203
REMARK   82  A    between atoms: _208  and  _210
REMARK   83  A    between atoms: _210  and  _211
REMARK   84  A    between atoms: _210  and  _213
REMARK   85  A    between atoms: _213  and  _214
REMARK   86  A    between atoms: _217  and  _219
REMARK   87  A    between atoms: _219  and  _220
REMARK   88  A    between atoms: _219  and  _222
REMARK   89  A    between atoms: _222  and  _223
REMARK   90  A    between atoms: _228  and  _230
REMARK   91  A    between atoms: _230  and  _231
REMARK   92  A    between atoms: _230  and  _233
REMARK   93  A    between atoms: _233  and  _234
REMARK   94  A    between atoms: _237  and  _239
REMARK   95  A    between atoms: _239  and  _240
REMARK   96  A    between atoms: _239  and  _242
REMARK   97  A    between atoms: _245  and  _247
REMARK   98  A    between atoms: _247  and  _248
REMARK   99  A    between atoms: _247  and  _250
REMARK  100  A    between atoms: _250  and  _251
REMARK  101  A    between atoms: _257  and  _259
REMARK  102  A    between atoms: _259  and  _260
REMARK  103  A    between atoms: _259  and  _262
REMARK  104  A    between atoms: _265  and  _267
REMARK  105  A    between atoms: _267  and  _268
REMARK  106  A    between atoms: _267  and  _270
REMARK  107  A    between atoms: _273  and  _275
REMARK  108  A    between atoms: _275  and  _276
REMARK  109  A    between atoms: _278  and  _280
REMARK  110  A    between atoms: _280  and  _281
REMARK  111  A    between atoms: _280  and  _283
REMARK  112  A    between atoms: _283  and  _284
REMARK  113  A    between atoms: _287  and  _289
REMARK  114  A    between atoms: _289  and  _290
REMARK  115  A    between atoms: _289  and  _292
REMARK  116  A    between atoms: _292  and  _293
REMARK  117  A    between atoms: _295  and  _297
REMARK  118  A    between atoms: _297  and  _298
REMARK  119  A    between atoms: _297  and  _300
REMARK  120  A    between atoms: _300  and  _301
REMARK  121  A    between atoms: _304  and  _306
REMARK  122  A    between atoms: _306  and  _307
REMARK  123  A    between atoms: _310  and  _312
REMARK  124  A    between atoms: _312  and  _313
REMARK  125  A    between atoms: _312  and  _315
REMARK  126  A    between atoms: _318  and  _320
REMARK  127  A    between atoms: _320  and  _321
REMARK  128  A    between atoms: _320  and  _323
REMARK  129  A    between atoms: _323  and  _324
REMARK  130  A    between atoms: _329  and  _330
REMARK  131  A    between atoms: _332  and  _334
REMARK  132  A    between atoms: _334  and  _335
REMARK  133  A    between atoms: _334  and  _337
REMARK  134  A    between atoms: _337  and  _338
REMARK  135  A    between atoms: _344  and  _346
REMARK  136  A    between atoms: _346  and  _347
REMARK  137  A    between atoms: _346  and  _349
REMARK  138  A    between atoms: _349  and  _350
REMARK  139  A    between atoms: _353  and  _355
REMARK  140  A    between atoms: _355  and  _356
REMARK  141  A    between atoms: _355  and  _358
REMARK  142  A    between atoms: _360  and  _362
REMARK  143  A    between atoms: _362  and  _363
REMARK  144  A    between atoms: _362  and  _365
REMARK  145  A    between atoms: _365  and  _366
REMARK  146  A    between atoms: _371  and  _373
REMARK  147  A    between atoms: _373  and  _374
REMARK  148  A    between atoms: _373  and  _376
REMARK  149  A    between atoms: _376  and  _377
REMARK  150  A    between atoms: _380  and  _382
REMARK  151  A    between atoms: _382  and  _383
REMARK  152  A    between atoms: _382  and  _385
REMARK  153  A    between atoms: _385  and  _386
REMARK  154  A    between atoms: _386  and  _387
REMARK  155  A    between atoms: _390  and  _392
REMARK  156  A    between atoms: _392  and  _393
REMARK  157  A    between atoms: _392  and  _395
REMARK  158  A    between atoms: _395  and  _396
REMARK  159  A    between atoms: _399  and  _401
REMARK  160  A    between atoms: _401  and  _402
REMARK  161  A    between atoms: _401  and  _404
REMARK  162  A    between atoms: _407  and  _409
REMARK  163  A    between atoms: _409  and  _410
REMARK  164  A    between atoms: _412  and  _414
REMARK  165  A    between atoms: _414  and  _415
REMARK  166  A    between atoms: _414  and  _417
REMARK  167  A    between atoms: _420  and  _422
REMARK  168  A    between atoms: _422  and  _423
REMARK  169  A    between atoms: _422  and  _425
REMARK  170  A    between atoms: _425  and  _426
REMARK  171  A    between atoms: _431  and  _433
REMARK  172  A    between atoms: _433  and  _434
REMARK  173  A    between atoms: _433  and  _436
REMARK  174  A    between atoms: _436  and  _437
REMARK  175  A    between atoms: _437  and  _438
REMARK  176  A    between atoms: _443  and  _445
REMARK  177  A    between atoms: _445  and  _446
REMARK  178  A    between atoms: _445  and  _448
REMARK  179  A    between atoms: _448  and  _449
REMARK  180  A    between atoms: _454  and  _455
REMARK  181  A    between atoms: _457  and  _459
REMARK  182  A    between atoms: _459  and  _460
REMARK  183  A    between atoms: _459  and  _462
REMARK  184  A    between atoms: _462  and  _463
REMARK  185  A    between atoms: _465  and  _467
REMARK  186  A    between atoms: _467  and  _468
REMARK  187  A    between atoms: _467  and  _470
REMARK  188  A    between atoms: _470  and  _471
REMARK  189  A    between atoms: _474  and  _476
REMARK  190  A    between atoms: _476  and  _477
REMARK  191  A    between atoms: _476  and  _479
REMARK  192  A    between atoms: _479  and  _480
REMARK  193  A    between atoms: _480  and  _481
REMARK  194  A    between atoms: _484  and  _486
REMARK  195  A    between atoms: _486  and  _487
REMARK  196  A    between atoms: _486  and  _489
REMARK  197  A    between atoms: _489  and  _490
REMARK  198  A    between atoms: _496  and  _498
REMARK  199  A    between atoms: _498  and  _499
REMARK                            x       y       z     vdW  Elec       q    Type
REMARK                         _______ _______ _______ _____ _____    ______ ____
ROOT
ATOM      1  O   HOH     1      -6.073  37.847 -43.146  0.00  0.00    +0.000 OA
ENDROOT
TORSDOF 0
REMARK  Name = ../refined-set-2016/1szd/1szd_pocket.pdb
REMARK  199 active torsions:
REMARK  status: ('A' for Active; 'I' for Inactive)
REMARK    1  A    between atoms: _1  and  _3
REMARK    2  A    between atoms: _3  and  _4
REMARK    3  A    between atoms: _3  and  _6
REMARK    4  A    between atoms: _9  and  _11
REMARK    5  A    between atoms: _11  and  _12
REMARK    6  A    between atoms: _11  and  _14
REMARK    7  A    between atoms: _17  and  _19
REMARK    8  A    between atoms: _19  and  _20
REMARK    9  A    between atoms: _22  and  _24
REMARK   10  A    between atoms: _24  and  _25
REMARK   11  A    between atoms: _28  and  _30
REMARK   12  A    between atoms: _30  and  _31
REMARK   13  A    between atoms: _33  and  _35
REMARK   14  A    between atoms: _35  and  _36
REMARK   15  A    between atoms: _35  and  _38
REMARK   16  A    between atoms: _38  and  _39
REMARK   17  A    between atoms: _42  and  _44
REMARK   18  A    between atoms: _44  and  _45
REMARK   19  A    between atoms: _44  and  _47
REMARK   20  A    between atoms: _47  and  _48
REMARK   21  A    between atoms: _50  and  _52
REMARK   22  A    between atoms: _52  and  _53
REMARK   23  A    between atoms: _52  and  _55
REMARK   24  A    between atoms: _55  and  _56
REMARK   25  A    between atoms: _59  and  _61
REMARK   26  A    between atoms: _61  and  _62
REMARK   27  A    between atoms: _61  and  _64
REMARK   28  A    between atoms: _64  and  _65
REMARK   29  A    between atoms: _67  and  _69
REMARK   30  A    between atoms: _69  and  _70
REMARK   31  A    between atoms: _69  and  _72
REMARK   32  A    between atoms: _74  and  _76
REMARK   33  A    between atoms: _76  and  _77
REMARK   34  A    between atoms: _76  and  _79
REMARK   35  A    between atoms: _79  and  _80
REMARK   36  A    between atoms: _83  and  _85
REMARK   37  A    between atoms: _85  and  _86
REMARK   38  A    between atoms: _85  and  _88
REMARK   39  A    between atoms: _88  and  _89
REMARK   40  A    between atoms: _95  and  _97
REMARK   41  A    between atoms: _97  and  _98
REMARK   42  A    between atoms: _97  and  _100
REMARK   43  A    between atoms: _100  and  _101
REMARK   44  A    between atoms: _101  and  _102
REMARK   45  A    between atoms: _102  and  _103
REMARK   46  A    between atoms: _113  and  _114
REMARK   47  A    between atoms: _119  and  _121
REMARK   48  A    between atoms: _121  and  _122
REMARK   49  A    between atoms: _121  and  _124
REMARK   50  A    between atoms: _124  and  _125
REMARK   51  A    between atoms: _125  and  _126
REMARK   52  A    between atoms: _129  and  _131
REMARK   53  A    between atoms: _131  and  _132
REMARK   54  A    between atoms: _135  and  _137
REMARK   55  A    between atoms: _137  and  _138
REMARK   56  A    between atoms: _137  and  _140
REMARK   57  A    between atoms: _143  and  _145
REMARK   58  A    between atoms: _145  and  _146
REMARK   59  A    between atoms: _145  and  _148
REMARK   60  A    between atoms: _148  and  _149
REMARK   61  A    between atoms: _155  and  _157
REMARK   62  A    between atoms: _157  and  _158
REMARK   63  A    between atoms: _157  and  _160
REMARK   64  A    between atoms: _160  and  _161
REMARK   65  A    between atoms: _164  and  _166
REMARK   66  A    between atoms: _166  and  _167
REMARK   67  A    between atoms: _166  and  _169
REMARK   68  A    between atoms: _169  and  _170
REMARK   69  A    between atoms: _176  and  _178
REMARK   70  A    between atoms: _178  and  _179
REMARK   71  A    between atoms: _178  and  _181
REMARK   72  A    between atoms: _181  and  _182
REMARK   73  A    between atoms: _185  and  _187
REMARK   74  A    between atoms: _187  and  _188
REMARK   75  A    between atoms: _187  and  _190
REMARK   76  A    between atoms: _190  and  _191
REMARK   77  A    between atoms: _191  and  _192
REMARK   78  A    between atoms: _197  and  _199
REMARK   79  A    between atoms: _199  and  _200
REMARK   80  A    between atoms: _199  and  _202
REMARK   81  A    between atoms: _202  and  _203
REMARK   82  A    between atoms: _208  and  _210
REMARK   83  A    between atoms: _210  and  _211
REMARK   84  A    between atoms: _210  and  _213
REMARK   85  A    between atoms: _213  and  _214
REMARK   86  A    between atoms: _217  and  _219
REMARK   87  A    between atoms: _219  and  _220
REMARK   88  A    between atoms: _219  and  _222
REMARK   89  A    between atoms: _222  and  _223
REMARK   90  A    between atoms: _228  and  _230
REMARK   91  A    between atoms: _230  and  _231
REMARK   92  A    between atoms: _230  and  _233
REMARK   93  A    between atoms: _233  and  _234
REMARK   94  A    between atoms: _237  and  _239
REMARK   95  A    between atoms: _239  and  _240
REMARK   96  A    between atoms: _239  and  _242
REMARK   97  A    between atoms: _245  and  _247
REMARK   98  A    between atoms: _247  and  _248
REMARK   99  A    between atoms: _247  and  _250
REMARK  100  A    between atoms: _250  and  _251
REMARK  101  A    between atoms: _257  and  _259
REMARK  102  A    between atoms: _259  and  _260
REMARK  103  A    between atoms: _259  and  _262
REMARK  104  A    between atoms: _265  and  _267
REMARK  105  A    between atoms: _267  and  _268
REMARK  106  A    between atoms: _267  and  _270
REMARK  107  A    between atoms: _273  and  _275
REMARK  108  A    between atoms: _275  and  _276
REMARK  109  A    between atoms: _278  and  _280
REMARK  110  A    between atoms: _280  and  _281
REMARK  111  A    between atoms: _280  and  _283
REMARK  112  A    between atoms: _283  and  _284
REMARK  113  A    between atoms: _287  and  _289
REMARK  114  A    between atoms: _289  and  _290
REMARK  115  A    between atoms: _289  and  _292
REMARK  116  A    between atoms: _292  and  _293
REMARK  117  A    between atoms: _295  and  _297
REMARK  118  A    between atoms: _297  and  _298
REMARK  119  A    between atoms: _297  and  _300
REMARK  120  A    between atoms: _300  and  _301
REMARK  121  A    between atoms: _304  and  _306
REMARK  122  A    between atoms: _306  and  _307
REMARK  123  A    between atoms: _310  and  _312
REMARK  124  A    between atoms: _312  and  _313
REMARK  125  A    between atoms: _312  and  _315
REMARK  126  A    between atoms: _318  and  _320
REMARK  127  A    between atoms: _320  and  _321
REMARK  128  A    between atoms: _320  and  _323
REMARK  129  A    between atoms: _323  and  _324
REMARK  130  A    between atoms: _329  and  _330
REMARK  131  A    between atoms: _332  and  _334
REMARK  132  A    between atoms: _334  and  _335
REMARK  133  A    between atoms: _334  and  _337
REMARK  134  A    between atoms: _337  and  _338
REMARK  135  A    between atoms: _344  and  _346
REMARK  136  A    between atoms: _346  and  _347
REMARK  137  A    between atoms: _346  and  _349
REMARK  138  A    between atoms: _349  and  _350
REMARK  139  A    between atoms: _353  and  _355
REMARK  140  A    between atoms: _355  and  _356
REMARK  141  A    between atoms: _355  and  _358
REMARK  142  A    between atoms: _360  and  _362
REMARK  143  A    between atoms: _362  and  _363
REMARK  144  A    between atoms: _362  and  _365
REMARK  145  A    between atoms: _365  and  _366
REMARK  146  A    between atoms: _371  and  _373
REMARK  147  A    between atoms: _373  and  _374
REMARK  148  A    between atoms: _373  and  _376
REMARK  149  A    between atoms: _376  and  _377
REMARK  150  A    between atoms: _380  and  _382
REMARK  151  A    between atoms: _382  and  _383
REMARK  152  A    between atoms: _382  and  _385
REMARK  153  A    between atoms: _385  and  _386
REMARK  154  A    between atoms: _386  and  _387
REMARK  155  A    between atoms: _390  and  _392
REMARK  156  A    between atoms: _392  and  _393
REMARK  157  A    between atoms: _392  and  _395
REMARK  158  A    between atoms: _395  and  _396
REMARK  159  A    between atoms: _399  and  _401
REMARK  160  A    between atoms: _401  and  _402
REMARK  161  A    between atoms: _401  and  _404
REMARK  162  A    between atoms: _407  and  _409
REMARK  163  A    between atoms: _409  and  _410
REMARK  164  A    between atoms: _412  and  _414
REMARK  165  A    between atoms: _414  and  _415
REMARK  166  A    between atoms: _414  and  _417
REMARK  167  A    between atoms: _420  and  _422
REMARK  168  A    between atoms: _422  and  _423
REMARK  169  A    between atoms: _422  and  _425
REMARK  170  A    between atoms: _425  and  _426
REMARK  171  A    between atoms: _431  and  _433
REMARK  172  A    between atoms: _433  and  _434
REMARK  173  A    between atoms: _433  and  _436
REMARK  174  A    between atoms: _436  and  _437
REMARK  175  A    between atoms: _437  and  _438
REMARK  176  A    between atoms: _443  and  _445
REMARK  177  A    between atoms: _445  and  _446
REMARK  178  A    between atoms: _445  and  _448
REMARK  179  A    between atoms: _448  and  _449
REMARK  180  A    between atoms: _454  and  _455
REMARK  181  A    between atoms: _457  and  _459
REMARK  182  A    between atoms: _459  and  _460
REMARK  183  A    between atoms: _459  and  _462
REMARK  184  A    between atoms: _462  and  _463
REMARK  185  A    between atoms: _465  and  _467
REMARK  186  A    between atoms: _467  and  _468
REMARK  187  A    between atoms: _467  and  _470
REMARK  188  A    between atoms: _470  and  _471
REMARK  189  A    between atoms: _474  and  _476
REMARK  190  A    between atoms: _476  and  _477
REMARK  191  A    between atoms: _476  and  _479
REMARK  192  A    between atoms: _479  and  _480
REMARK  193  A    between atoms: _480  and  _481
REMARK  194  A    between atoms: _484  and  _486
REMARK  195  A    between atoms: _486  and  _487
REMARK  196  A    between atoms: _486  and  _489
REMARK  197  A    between atoms: _489  and  _490
REMARK  198  A    between atoms: _496  and  _498
REMARK  199  A    between atoms: _498  and  _499
REMARK                            x       y       z     vdW  Elec       q    Type
REMARK                         _______ _______ _______ _____ _____    ______ ____
ROOT
ATOM      1  O   HOH     1      -6.550  32.024 -46.890  0.00  0.00    +0.000 OA
ENDROOT
TORSDOF 0
REMARK  Name = ../refined-set-2016/1szd/1szd_pocket.pdb
REMARK  199 active torsions:
REMARK  status: ('A' for Active; 'I' for Inactive)
REMARK    1  A    between atoms: _1  and  _3
REMARK    2  A    between atoms: _3  and  _4
REMARK    3  A    between atoms: _3  and  _6
REMARK    4  A    between atoms: _9  and  _11
REMARK    5  A    between atoms: _11  and  _12
REMARK    6  A    between atoms: _11  and  _14
REMARK    7  A    between atoms: _17  and  _19
REMARK    8  A    between atoms: _19  and  _20
REMARK    9  A    between atoms: _22  and  _24
REMARK   10  A    between atoms: _24  and  _25
REMARK   11  A    between atoms: _28  and  _30
REMARK   12  A    between atoms: _30  and  _31
REMARK   13  A    between atoms: _33  and  _35
REMARK   14  A    between atoms: _35  and  _36
REMARK   15  A    between atoms: _35  and  _38
REMARK   16  A    between atoms: _38  and  _39
REMARK   17  A    between atoms: _42  and  _44
REMARK   18  A    between atoms: _44  and  _45
REMARK   19  A    between atoms: _44  and  _47
REMARK   20  A    between atoms: _47  and  _48
REMARK   21  A    between atoms: _50  and  _52
REMARK   22  A    between atoms: _52  and  _53
REMARK   23  A    between atoms: _52  and  _55
REMARK   24  A    between atoms: _55  and  _56
REMARK   25  A    between atoms: _59  and  _61
REMARK   26  A    between atoms: _61  and  _62
REMARK   27  A    between atoms: _61  and  _64
REMARK   28  A    between atoms: _64  and  _65
REMARK   29  A    between atoms: _67  and  _69
REMARK   30  A    between atoms: _69  and  _70
REMARK   31  A    between atoms: _69  and  _72
REMARK   32  A    between atoms: _74  and  _76
REMARK   33  A    between atoms: _76  and  _77
REMARK   34  A    between atoms: _76  and  _79
REMARK   35  A    between atoms: _79  and  _80
REMARK   36  A    between atoms: _83  and  _85
REMARK   37  A    between atoms: _85  and  _86
REMARK   38  A    between atoms: _85  and  _88
REMARK   39  A    between atoms: _88  and  _89
REMARK   40  A    between atoms: _95  and  _97
REMARK   41  A    between atoms: _97  and  _98
REMARK   42  A    between atoms: _97  and  _100
REMARK   43  A    between atoms: _100  and  _101
REMARK   44  A    between atoms: _101  and  _102
REMARK   45  A    between atoms: _102  and  _103
REMARK   46  A    between atoms: _113  and  _114
REMARK   47  A    between atoms: _119  and  _121
REMARK   48  A    between atoms: _121  and  _122
REMARK   49  A    between atoms: _121  and  _124
REMARK   50  A    between atoms: _124  and  _125
REMARK   51  A    between atoms: _125  and  _126
REMARK   52  A    between atoms: _129  and  _131
REMARK   53  A    between atoms: _131  and  _132
REMARK   54  A    between atoms: _135  and  _137
REMARK   55  A    between atoms: _137  and  _138
REMARK   56  A    between atoms: _137  and  _140
REMARK   57  A    between atoms: _143  and  _145
REMARK   58  A    between atoms: _145  and  _146
REMARK   59  A    between atoms: _145  and  _148
REMARK   60  A    between atoms: _148  and  _149
REMARK   61  A    between atoms: _155  and  _157
REMARK   62  A    between atoms: _157  and  _158
REMARK   63  A    between atoms: _157  and  _160
REMARK   64  A    between atoms: _160  and  _161
REMARK   65  A    between atoms: _164  and  _166
REMARK   66  A    between atoms: _166  and  _167
REMARK   67  A    between atoms: _166  and  _169
REMARK   68  A    between atoms: _169  and  _170
REMARK   69  A    between atoms: _176  and  _178
REMARK   70  A    between atoms: _178  and  _179
REMARK   71  A    between atoms: _178  and  _181
REMARK   72  A    between atoms: _181  and  _182
REMARK   73  A    between atoms: _185  and  _187
REMARK   74  A    between atoms: _187  and  _188
REMARK   75  A    between atoms: _187  and  _190
REMARK   76  A    between atoms: _190  and  _191
REMARK   77  A    between atoms: _191  and  _192
REMARK   78  A    between atoms: _197  and  _199
REMARK   79  A    between atoms: _199  and  _200
REMARK   80  A    between atoms: _199  and  _202
REMARK   81  A    between atoms: _202  and  _203
REMARK   82  A    between atoms: _208  and  _210
REMARK   83  A    between atoms: _210  and  _211
REMARK   84  A    between atoms: _210  and  _213
REMARK   85  A    between atoms: _213  and  _214
REMARK   86  A    between atoms: _217  and  _219
REMARK   87  A    between atoms: _219  and  _220
REMARK   88  A    between atoms: _219  and  _222
REMARK   89  A    between atoms: _222  and  _223
REMARK   90  A    between atoms: _228  and  _230
REMARK   91  A    between atoms: _230  and  _231
REMARK   92  A    between atoms: _230  and  _233
REMARK   93  A    between atoms: _233  and  _234
REMARK   94  A    between atoms: _237  and  _239
REMARK   95  A    between atoms: _239  and  _240
REMARK   96  A    between atoms: _239  and  _242
REMARK   97  A    between atoms: _245  and  _247
REMARK   98  A    between atoms: _247  and  _248
REMARK   99  A    between atoms: _247  and  _250
REMARK  100  A    between atoms: _250  and  _251
REMARK  101  A    between atoms: _257  and  _259
REMARK  102  A    between atoms: _259  and  _260
REMARK  103  A    between atoms: _259  and  _262
REMARK  104  A    between atoms: _265  and  _267
REMARK  105  A    between atoms: _267  and  _268
REMARK  106  A    between atoms: _267  and  _270
REMARK  107  A    between atoms: _273  and  _275
REMARK  108  A    between atoms: _275  and  _276
REMARK  109  A    between atoms: _278  and  _280
REMARK  110  A    between atoms: _280  and  _281
REMARK  111  A    between atoms: _280  and  _283
REMARK  112  A    between atoms: _283  and  _284
REMARK  113  A    between atoms: _287  and  _289
REMARK  114  A    between atoms: _289  and  _290
REMARK  115  A    between atoms: _289  and  _292
REMARK  116  A    between atoms: _292  and  _293
REMARK  117  A    between atoms: _295  and  _297
REMARK  118  A    between atoms: _297  and  _298
REMARK  119  A    between atoms: _297  and  _300
REMARK  120  A    between atoms: _300  and  _301
REMARK  121  A    between atoms: _304  and  _306
REMARK  122  A    between atoms: _306  and  _307
REMARK  123  A    between atoms: _310  and  _312
REMARK  124  A    between atoms: _312  and  _313
REMARK  125  A    between atoms: _312  and  _315
REMARK  126  A    between atoms: _318  and  _320
REMARK  127  A    between atoms: _320  and  _321
REMARK  128  A    between atoms: _320  and  _323
REMARK  129  A    between atoms: _323  and  _324
REMARK  130  A    between atoms: _329  and  _330
REMARK  131  A    between atoms: _332  and  _334
REMARK  132  A    between atoms: _334  and  _335
REMARK  133  A    between atoms: _334  and  _337
REMARK  134  A    between atoms: _337  and  _338
REMARK  135  A    between atoms: _344  and  _346
REMARK  136  A    between atoms: _346  and  _347
REMARK  137  A    between atoms: _346  and  _349
REMARK  138  A    between atoms: _349  and  _350
REMARK  139  A    between atoms: _353  and  _355
REMARK  140  A    between atoms: _355  and  _356
REMARK  141  A    between atoms: _355  and  _358
REMARK  142  A    between atoms: _360  and  _362
REMARK  143  A    between atoms: _362  and  _363
REMARK  144  A    between atoms: _362  and  _365
REMARK  145  A    between atoms: _365  and  _366
REMARK  146  A    between atoms: _371  and  _373
REMARK  147  A    between atoms: _373  and  _374
REMARK  148  A    between atoms: _373  and  _376
REMARK  149  A    between atoms: _376  and  _377
REMARK  150  A    between atoms: _380  and  _382
REMARK  151  A    between atoms: _382  and  _383
REMARK  152  A    between atoms: _382  and  _385
REMARK  153  A    between atoms: _385  and  _386
REMARK  154  A    between atoms: _386  and  _387
REMARK  155  A    between atoms: _390  and  _392
REMARK  156  A    between atoms: _392  and  _393
REMARK  157  A    between atoms: _392  and  _395
REMARK  158  A    between atoms: _395  and  _396
REMARK  159  A    between atoms: _399  and  _401
REMARK  160  A    between atoms: _401  and  _402
REMARK  161  A    between atoms: _401  and  _404
REMARK  162  A    between atoms: _407  and  _409
REMARK  163  A    between atoms: _409  and  _410
REMARK  164  A    between atoms: _412  and  _414
REMARK  165  A    between atoms: _414  and  _415
REMARK  166  A    between atoms: _414  and  _417
REMARK  167  A    between atoms: _420  and  _422
REMARK  168  A    between atoms: _422  and  _423
REMARK  169  A    between atoms: _422  and  _425
REMARK  170  A    between atoms: _425  and  _426
REMARK  171  A    between atoms: _431  and  _433
REMARK  172  A    between atoms: _433  and  _434
REMARK  173  A    between atoms: _433  and  _436
REMARK  174  A    between atoms: _436  and  _437
REMARK  175  A    between atoms: _437  and  _438
REMARK  176  A    between atoms: _443  and  _445
REMARK  177  A    between atoms: _445  and  _446
REMARK  178  A    between atoms: _445  and  _448
REMARK  179  A    between atoms: _448  and  _449
REMARK  180  A    between atoms: _454  and  _455
REMARK  181  A    between atoms: _457  and  _459
REMARK  182  A    between atoms: _459  and  _460
REMARK  183  A    between atoms: _459  and  _462
REMARK  184  A    between atoms: _462  and  _463
REMARK  185  A    between atoms: _465  and  _467
REMARK  186  A    between atoms: _467  and  _468
REMARK  187  A    between atoms: _467  and  _470
REMARK  188  A    between atoms: _470  and  _471
REMARK  189  A    between atoms: _474  and  _476
REMARK  190  A    between atoms: _476  and  _477
REMARK  191  A    between atoms: _476  and  _479
REMARK  192  A    between atoms: _479  and  _480
REMARK  193  A    between atoms: _480  and  _481
REMARK  194  A    between atoms: _484  and  _486
REMARK  195  A    between atoms: _486  and  _487
REMARK  196  A    between atoms: _486  and  _489
REMARK  197  A    between atoms: _489  and  _490
REMARK  198  A    between atoms: _496  and  _498
REMARK  199  A    between atoms: _498  and  _499
REMARK                            x       y       z     vdW  Elec       q    Type
REMARK                         _______ _______ _______ _____ _____    ______ ____
ROOT
ATOM      1  O   HOH     1     -18.830  38.263 -30.996  0.00  0.00    +0.000 OA
ENDROOT
TORSDOF 0
REMARK  Name = ../refined-set-2016/1szd/1szd_pocket.pdb
REMARK  199 active torsions:
REMARK  status: ('A' for Active; 'I' for Inactive)
REMARK    1  A    between atoms: _1  and  _3
REMARK    2  A    between atoms: _3  and  _4
REMARK    3  A    between atoms: _3  and  _6
REMARK    4  A    between atoms: _9  and  _11
REMARK    5  A    between atoms: _11  and  _12
REMARK    6  A    between atoms: _11  and  _14
REMARK    7  A    between atoms: _17  and  _19
REMARK    8  A    between atoms: _19  and  _20
REMARK    9  A    between atoms: _22  and  _24
REMARK   10  A    between atoms: _24  and  _25
REMARK   11  A    between atoms: _28  and  _30
REMARK   12  A    between atoms: _30  and  _31
REMARK   13  A    between atoms: _33  and  _35
REMARK   14  A    between atoms: _35  and  _36
REMARK   15  A    between atoms: _35  and  _38
REMARK   16  A    between atoms: _38  and  _39
REMARK   17  A    between atoms: _42  and  _44
REMARK   18  A    between atoms: _44  and  _45
REMARK   19  A    between atoms: _44  and  _47
REMARK   20  A    between atoms: _47  and  _48
REMARK   21  A    between atoms: _50  and  _52
REMARK   22  A    between atoms: _52  and  _53
REMARK   23  A    between atoms: _52  and  _55
REMARK   24  A    between atoms: _55  and  _56
REMARK   25  A    between atoms: _59  and  _61
REMARK   26  A    between atoms: _61  and  _62
REMARK   27  A    between atoms: _61  and  _64
REMARK   28  A    between atoms: _64  and  _65
REMARK   29  A    between atoms: _67  and  _69
REMARK   30  A    between atoms: _69  and  _70
REMARK   31  A    between atoms: _69  and  _72
REMARK   32  A    between atoms: _74  and  _76
REMARK   33  A    between atoms: _76  and  _77
REMARK   34  A    between atoms: _76  and  _79
REMARK   35  A    between atoms: _79  and  _80
REMARK   36  A    between atoms: _83  and  _85
REMARK   37  A    between atoms: _85  and  _86
REMARK   38  A    between atoms: _85  and  _88
REMARK   39  A    between atoms: _88  and  _89
REMARK   40  A    between atoms: _95  and  _97
REMARK   41  A    between atoms: _97  and  _98
REMARK   42  A    between atoms: _97  and  _100
REMARK   43  A    between atoms: _100  and  _101
REMARK   44  A    between atoms: _101  and  _102
REMARK   45  A    between atoms: _102  and  _103
REMARK   46  A    between atoms: _113  and  _114
REMARK   47  A    between atoms: _119  and  _121
REMARK   48  A    between atoms: _121  and  _122
REMARK   49  A    between atoms: _121  and  _124
REMARK   50  A    between atoms: _124  and  _125
REMARK   51  A    between atoms: _125  and  _126
REMARK   52  A    between atoms: _129  and  _131
REMARK   53  A    between atoms: _131  and  _132
REMARK   54  A    between atoms: _135  and  _137
REMARK   55  A    between atoms: _137  and  _138
REMARK   56  A    between atoms: _137  and  _140
REMARK   57  A    between atoms: _143  and  _145
REMARK   58  A    between atoms: _145  and  _146
REMARK   59  A    between atoms: _145  and  _148
REMARK   60  A    between atoms: _148  and  _149
REMARK   61  A    between atoms: _155  and  _157
REMARK   62  A    between atoms: _157  and  _158
REMARK   63  A    between atoms: _157  and  _160
REMARK   64  A    between atoms: _160  and  _161
REMARK   65  A    between atoms: _164  and  _166
REMARK   66  A    between atoms: _166  and  _167
REMARK   67  A    between atoms: _166  and  _169
REMARK   68  A    between atoms: _169  and  _170
REMARK   69  A    between atoms: _176  and  _178
REMARK   70  A    between atoms: _178  and  _179
REMARK   71  A    between atoms: _178  and  _181
REMARK   72  A    between atoms: _181  and  _182
REMARK   73  A    between atoms: _185  and  _187
REMARK   74  A    between atoms: _187  and  _188
REMARK   75  A    between atoms: _187  and  _190
REMARK   76  A    between atoms: _190  and  _191
REMARK   77  A    between atoms: _191  and  _192
REMARK   78  A    between atoms: _197  and  _199
REMARK   79  A    between atoms: _199  and  _200
REMARK   80  A    between atoms: _199  and  _202
REMARK   81  A    between atoms: _202  and  _203
REMARK   82  A    between atoms: _208  and  _210
REMARK   83  A    between atoms: _210  and  _211
REMARK   84  A    between atoms: _210  and  _213
REMARK   85  A    between atoms: _213  and  _214
REMARK   86  A    between atoms: _217  and  _219
REMARK   87  A    between atoms: _219  and  _220
REMARK   88  A    between atoms: _219  and  _222
REMARK   89  A    between atoms: _222  and  _223
REMARK   90  A    between atoms: _228  and  _230
REMARK   91  A    between atoms: _230  and  _231
REMARK   92  A    between atoms: _230  and  _233
REMARK   93  A    between atoms: _233  and  _234
REMARK   94  A    between atoms: _237  and  _239
REMARK   95  A    between atoms: _239  and  _240
REMARK   96  A    between atoms: _239  and  _242
REMARK   97  A    between atoms: _245  and  _247
REMARK   98  A    between atoms: _247  and  _248
REMARK   99  A    between atoms: _247  and  _250
REMARK  100  A    between atoms: _250  and  _251
REMARK  101  A    between atoms: _257  and  _259
REMARK  102  A    between atoms: _259  and  _260
REMARK  103  A    between atoms: _259  and  _262
REMARK  104  A    between atoms: _265  and  _267
REMARK  105  A    between atoms: _267  and  _268
REMARK  106  A    between atoms: _267  and  _270
REMARK  107  A    between atoms: _273  and  _275
REMARK  108  A    between atoms: _275  and  _276
REMARK  109  A    between atoms: _278  and  _280
REMARK  110  A    between atoms: _280  and  _281
REMARK  111  A    between atoms: _280  and  _283
REMARK  112  A    between atoms: _283  and  _284
REMARK  113  A    between atoms: _287  and  _289
REMARK  114  A    between atoms: _289  and  _290
REMARK  115  A    between atoms: _289  and  _292
REMARK  116  A    between atoms: _292  and  _293
REMARK  117  A    between atoms: _295  and  _297
REMARK  118  A    between atoms: _297  and  _298
REMARK  119  A    between atoms: _297  and  _300
REMARK  120  A    between atoms: _300  and  _301
REMARK  121  A    between atoms: _304  and  _306
REMARK  122  A    between atoms: _306  and  _307
REMARK  123  A    between atoms: _310  and  _312
REMARK  124  A    between atoms: _312  and  _313
REMARK  125  A    between atoms: _312  and  _315
REMARK  126  A    between atoms: _318  and  _320
REMARK  127  A    between atoms: _320  and  _321
REMARK  128  A    between atoms: _320  and  _323
REMARK  129  A    between atoms: _323  and  _324
REMARK  130  A    between atoms: _329  and  _330
REMARK  131  A    between atoms: _332  and  _334
REMARK  132  A    between atoms: _334  and  _335
REMARK  133  A    between atoms: _334  and  _337
REMARK  134  A    between atoms: _337  and  _338
REMARK  135  A    between atoms: _344  and  _346
REMARK  136  A    between atoms: _346  and  _347
REMARK  137  A    between atoms: _346  and  _349
REMARK  138  A    between atoms: _349  and  _350
REMARK  139  A    between atoms: _353  and  _355
REMARK  140  A    between atoms: _355  and  _356
REMARK  141  A    between atoms: _355  and  _358
REMARK  142  A    between atoms: _360  and  _362
REMARK  143  A    between atoms: _362  and  _363
REMARK  144  A    between atoms: _362  and  _365
REMARK  145  A    between atoms: _365  and  _366
REMARK  146  A    between atoms: _371  and  _373
REMARK  147  A    between atoms: _373  and  _374
REMARK  148  A    between atoms: _373  and  _376
REMARK  149  A    between atoms: _376  and  _377
REMARK  150  A    between atoms: _380  and  _382
REMARK  151  A    between atoms: _382  and  _383
REMARK  152  A    between atoms: _382  and  _385
REMARK  153  A    between atoms: _385  and  _386
REMARK  154  A    between atoms: _386  and  _387
REMARK  155  A    between atoms: _390  and  _392
REMARK  156  A    between atoms: _392  and  _393
REMARK  157  A    between atoms: _392  and  _395
REMARK  158  A    between atoms: _395  and  _396
REMARK  159  A    between atoms: _399  and  _401
REMARK  160  A    between atoms: _401  and  _402
REMARK  161  A    between atoms: _401  and  _404
REMARK  162  A    between atoms: _407  and  _409
REMARK  163  A    between atoms: _409  and  _410
REMARK  164  A    between atoms: _412  and  _414
REMARK  165  A    between atoms: _414  and  _415
REMARK  166  A    between atoms: _414  and  _417
REMARK  167  A    between atoms: _420  and  _422
REMARK  168  A    between atoms: _422  and  _423
REMARK  169  A    between atoms: _422  and  _425
REMARK  170  A    between atoms: _425  and  _426
REMARK  171  A    between atoms: _431  and  _433
REMARK  172  A    between atoms: _433  and  _434
REMARK  173  A    between atoms: _433  and  _436
REMARK  174  A    between atoms: _436  and  _437
REMARK  175  A    between atoms: _437  and  _438
REMARK  176  A    between atoms: _443  and  _445
REMARK  177  A    between atoms: _445  and  _446
REMARK  178  A    between atoms: _445  and  _448
REMARK  179  A    between atoms: _448  and  _449
REMARK  180  A    between atoms: _454  and  _455
REMARK  181  A    between atoms: _457  and  _459
REMARK  182  A    between atoms: _459  and  _460
REMARK  183  A    between atoms: _459  and  _462
REMARK  184  A    between atoms: _462  and  _463
REMARK  185  A    between atoms: _465  and  _467
REMARK  186  A    between atoms: _467  and  _468
REMARK  187  A    between atoms: _467  and  _470
REMARK  188  A    between atoms: _470  and  _471
REMARK  189  A    between atoms: _474  and  _476
REMARK  190  A    between atoms: _476  and  _477
REMARK  191  A    between atoms: _476  and  _479
REMARK  192  A    between atoms: _479  and  _480
REMARK  193  A    between atoms: _480  and  _481
REMARK  194  A    between atoms: _484  and  _486
REMARK  195  A    between atoms: _486  and  _487
REMARK  196  A    between atoms: _486  and  _489
REMARK  197  A    between atoms: _489  and  _490
REMARK  198  A    between atoms: _496  and  _498
REMARK  199  A    between atoms: _498  and  _499
REMARK                            x       y       z     vdW  Elec       q    Type
REMARK                         _______ _______ _______ _____ _____    ______ ____
ROOT
ATOM      1  O   HOH     1      -1.483  31.869 -43.540  0.00  0.00    +0.000 OA
ENDROOT
TORSDOF 0
REMARK  Name = ../refined-set-2016/1szd/1szd_pocket.pdb
REMARK  199 active torsions:
REMARK  status: ('A' for Active; 'I' for Inactive)
REMARK    1  A    between atoms: _1  and  _3
REMARK    2  A    between atoms: _3  and  _4
REMARK    3  A    between atoms: _3  and  _6
REMARK    4  A    between atoms: _9  and  _11
REMARK    5  A    between atoms: _11  and  _12
REMARK    6  A    between atoms: _11  and  _14
REMARK    7  A    between atoms: _17  and  _19
REMARK    8  A    between atoms: _19  and  _20
REMARK    9  A    between atoms: _22  and  _24
REMARK   10  A    between atoms: _24  and  _25
REMARK   11  A    between atoms: _28  and  _30
REMARK   12  A    between atoms: _30  and  _31
REMARK   13  A    between atoms: _33  and  _35
REMARK   14  A    between atoms: _35  and  _36
REMARK   15  A    between atoms: _35  and  _38
REMARK   16  A    between atoms: _38  and  _39
REMARK   17  A    between atoms: _42  and  _44
REMARK   18  A    between atoms: _44  and  _45
REMARK   19  A    between atoms: _44  and  _47
REMARK   20  A    between atoms: _47  and  _48
REMARK   21  A    between atoms: _50  and  _52
REMARK   22  A    between atoms: _52  and  _53
REMARK   23  A    between atoms: _52  and  _55
REMARK   24  A    between atoms: _55  and  _56
REMARK   25  A    between atoms: _59  and  _61
REMARK   26  A    between atoms: _61  and  _62
REMARK   27  A    between atoms: _61  and  _64
REMARK   28  A    between atoms: _64  and  _65
REMARK   29  A    between atoms: _67  and  _69
REMARK   30  A    between atoms: _69  and  _70
REMARK   31  A    between atoms: _69  and  _72
REMARK   32  A    between atoms: _74  and  _76
REMARK   33  A    between atoms: _76  and  _77
REMARK   34  A    between atoms: _76  and  _79
REMARK   35  A    between atoms: _79  and  _80
REMARK   36  A    between atoms: _83  and  _85
REMARK   37  A    between atoms: _85  and  _86
REMARK   38  A    between atoms: _85  and  _88
REMARK   39  A    between atoms: _88  and  _89
REMARK   40  A    between atoms: _95  and  _97
REMARK   41  A    between atoms: _97  and  _98
REMARK   42  A    between atoms: _97  and  _100
REMARK   43  A    between atoms: _100  and  _101
REMARK   44  A    between atoms: _101  and  _102
REMARK   45  A    between atoms: _102  and  _103
REMARK   46  A    between atoms: _113  and  _114
REMARK   47  A    between atoms: _119  and  _121
REMARK   48  A    between atoms: _121  and  _122
REMARK   49  A    between atoms: _121  and  _124
REMARK   50  A    between atoms: _124  and  _125
REMARK   51  A    between atoms: _125  and  _126
REMARK   52  A    between atoms: _129  and  _131
REMARK   53  A    between atoms: _131  and  _132
REMARK   54  A    between atoms: _135  and  _137
REMARK   55  A    between atoms: _137  and  _138
REMARK   56  A    between atoms: _137  and  _140
REMARK   57  A    between atoms: _143  and  _145
REMARK   58  A    between atoms: _145  and  _146
REMARK   59  A    between atoms: _145  and  _148
REMARK   60  A    between atoms: _148  and  _149
REMARK   61  A    between atoms: _155  and  _157
REMARK   62  A    between atoms: _157  and  _158
REMARK   63  A    between atoms: _157  and  _160
REMARK   64  A    between atoms: _160  and  _161
REMARK   65  A    between atoms: _164  and  _166
REMARK   66  A    between atoms: _166  and  _167
REMARK   67  A    between atoms: _166  and  _169
REMARK   68  A    between atoms: _169  and  _170
REMARK   69  A    between atoms: _176  and  _178
REMARK   70  A    between atoms: _178  and  _179
REMARK   71  A    between atoms: _178  and  _181
REMARK   72  A    between atoms: _181  and  _182
REMARK   73  A    between atoms: _185  and  _187
REMARK   74  A    between atoms: _187  and  _188
REMARK   75  A    between atoms: _187  and  _190
REMARK   76  A    between atoms: _190  and  _191
REMARK   77  A    between atoms: _191  and  _192
REMARK   78  A    between atoms: _197  and  _199
REMARK   79  A    between atoms: _199  and  _200
REMARK   80  A    between atoms: _199  and  _202
REMARK   81  A    between atoms: _202  and  _203
REMARK   82  A    between atoms: _208  and  _210
REMARK   83  A    between atoms: _210  and  _211
REMARK   84  A    between atoms: _210  and  _213
REMARK   85  A    between atoms: _213  and  _214
REMARK   86  A    between atoms: _217  and  _219
REMARK   87  A    between atoms: _219  and  _220
REMARK   88  A    between atoms: _219  and  _222
REMARK   89  A    between atoms: _222  and  _223
REMARK   90  A    between atoms: _228  and  _230
REMARK   91  A    between atoms: _230  and  _231
REMARK   92  A    between atoms: _230  and  _233
REMARK   93  A    between atoms: _233  and  _234
REMARK   94  A    between atoms: _237  and  _239
REMARK   95  A    between atoms: _239  and  _240
REMARK   96  A    between atoms: _239  and  _242
REMARK   97  A    between atoms: _245  and  _247
REMARK   98  A    between atoms: _247  and  _248
REMARK   99  A    between atoms: _247  and  _250
REMARK  100  A    between atoms: _250  and  _251
REMARK  101  A    between atoms: _257  and  _259
REMARK  102  A    between atoms: _259  and  _260
REMARK  103  A    between atoms: _259  and  _262
REMARK  104  A    between atoms: _265  and  _267
REMARK  105  A    between atoms: _267  and  _268
REMARK  106  A    between atoms: _267  and  _270
REMARK  107  A    between atoms: _273  and  _275
REMARK  108  A    between atoms: _275  and  _276
REMARK  109  A    between atoms: _278  and  _280
REMARK  110  A    between atoms: _280  and  _281
REMARK  111  A    between atoms: _280  and  _283
REMARK  112  A    between atoms: _283  and  _284
REMARK  113  A    between atoms: _287  and  _289
REMARK  114  A    between atoms: _289  and  _290
REMARK  115  A    between atoms: _289  and  _292
REMARK  116  A    between atoms: _292  and  _293
REMARK  117  A    between atoms: _295  and  _297
REMARK  118  A    between atoms: _297  and  _298
REMARK  119  A    between atoms: _297  and  _300
REMARK  120  A    between atoms: _300  and  _301
REMARK  121  A    between atoms: _304  and  _306
REMARK  122  A    between atoms: _306  and  _307
REMARK  123  A    between atoms: _310  and  _312
REMARK  124  A    between atoms: _312  and  _313
REMARK  125  A    between atoms: _312  and  _315
REMARK  126  A    between atoms: _318  and  _320
REMARK  127  A    between atoms: _320  and  _321
REMARK  128  A    between atoms: _320  and  _323
REMARK  129  A    between atoms: _323  and  _324
REMARK  130  A    between atoms: _329  and  _330
REMARK  131  A    between atoms: _332  and  _334
REMARK  132  A    between atoms: _334  and  _335
REMARK  133  A    between atoms: _334  and  _337
REMARK  134  A    between atoms: _337  and  _338
REMARK  135  A    between atoms: _344  and  _346
REMARK  136  A    between atoms: _346  and  _347
REMARK  137  A    between atoms: _346  and  _349
REMARK  138  A    between atoms: _349  and  _350
REMARK  139  A    between atoms: _353  and  _355
REMARK  140  A    between atoms: _355  and  _356
REMARK  141  A    between atoms: _355  and  _358
REMARK  142  A    between atoms: _360  and  _362
REMARK  143  A    between atoms: _362  and  _363
REMARK  144  A    between atoms: _362  and  _365
REMARK  145  A    between atoms: _365  and  _366
REMARK  146  A    between atoms: _371  and  _373
REMARK  147  A    between atoms: _373  and  _374
REMARK  148  A    between atoms: _373  and  _376
REMARK  149  A    between atoms: _376  and  _377
REMARK  150  A    between atoms: _380  and  _382
REMARK  151  A    between atoms: _382  and  _383
REMARK  152  A    between atoms: _382  and  _385
REMARK  153  A    between atoms: _385  and  _386
REMARK  154  A    between atoms: _386  and  _387
REMARK  155  A    between atoms: _390  and  _392
REMARK  156  A    between atoms: _392  and  _393
REMARK  157  A    between atoms: _392  and  _395
REMARK  158  A    between atoms: _395  and  _396
REMARK  159  A    between atoms: _399  and  _401
REMARK  160  A    between atoms: _401  and  _402
REMARK  161  A    between atoms: _401  and  _404
REMARK  162  A    between atoms: _407  and  _409
REMARK  163  A    between atoms: _409  and  _410
REMARK  164  A    between atoms: _412  and  _414
REMARK  165  A    between atoms: _414  and  _415
REMARK  166  A    between atoms: _414  and  _417
REMARK  167  A    between atoms: _420  and  _422
REMARK  168  A    between atoms: _422  and  _423
REMARK  169  A    between atoms: _422  and  _425
REMARK  170  A    between atoms: _425  and  _426
REMARK  171  A    between atoms: _431  and  _433
REMARK  172  A    between atoms: _433  and  _434
REMARK  173  A    between atoms: _433  and  _436
REMARK  174  A    between atoms: _436  and  _437
REMARK  175  A    between atoms: _437  and  _438
REMARK  176  A    between atoms: _443  and  _445
REMARK  177  A    between atoms: _445  and  _446
REMARK  178  A    between atoms: _445  and  _448
REMARK  179  A    between atoms: _448  and  _449
REMARK  180  A    between atoms: _454  and  _455
REMARK  181  A    between atoms: _457  and  _459
REMARK  182  A    between atoms: _459  and  _460
REMARK  183  A    between atoms: _459  and  _462
REMARK  184  A    between atoms: _462  and  _463
REMARK  185  A    between atoms: _465  and  _467
REMARK  186  A    between atoms: _467  and  _468
REMARK  187  A    between atoms: _467  and  _470
REMARK  188  A    between atoms: _470  and  _471
REMARK  189  A    between atoms: _474  and  _476
REMARK  190  A    between atoms: _476  and  _477
REMARK  191  A    between atoms: _476  and  _479
REMARK  192  A    between atoms: _479  and  _480
REMARK  193  A    between atoms: _480  and  _481
REMARK  194  A    between atoms: _484  and  _486
REMARK  195  A    between atoms: _486  and  _487
REMARK  196  A    between atoms: _486  and  _489
REMARK  197  A    between atoms: _489  and  _490
REMARK  198  A    between atoms: _496  and  _498
REMARK  199  A    between atoms: _498  and  _499
REMARK                            x       y       z     vdW  Elec       q    Type
REMARK                         _______ _______ _______ _____ _____    ______ ____
ROOT
ATOM      1  O   HOH     1     -10.006  41.676 -41.977  0.00  0.00    +0.000 OA
ENDROOT
TORSDOF 0
REMARK  Name = ../refined-set-2016/1szd/1szd_pocket.pdb
REMARK  199 active torsions:
REMARK  status: ('A' for Active; 'I' for Inactive)
REMARK    1  A    between atoms: _1  and  _3
REMARK    2  A    between atoms: _3  and  _4
REMARK    3  A    between atoms: _3  and  _6
REMARK    4  A    between atoms: _9  and  _11
REMARK    5  A    between atoms: _11  and  _12
REMARK    6  A    between atoms: _11  and  _14
REMARK    7  A    between atoms: _17  and  _19
REMARK    8  A    between atoms: _19  and  _20
REMARK    9  A    between atoms: _22  and  _24
REMARK   10  A    between atoms: _24  and  _25
REMARK   11  A    between atoms: _28  and  _30
REMARK   12  A    between atoms: _30  and  _31
REMARK   13  A    between atoms: _33  and  _35
REMARK   14  A    between atoms: _35  and  _36
REMARK   15  A    between atoms: _35  and  _38
REMARK   16  A    between atoms: _38  and  _39
REMARK   17  A    between atoms: _42  and  _44
REMARK   18  A    between atoms: _44  and  _45
REMARK   19  A    between atoms: _44  and  _47
REMARK   20  A    between atoms: _47  and  _48
REMARK   21  A    between atoms: _50  and  _52
REMARK   22  A    between atoms: _52  and  _53
REMARK   23  A    between atoms: _52  and  _55
REMARK   24  A    between atoms: _55  and  _56
REMARK   25  A    between atoms: _59  and  _61
REMARK   26  A    between atoms: _61  and  _62
REMARK   27  A    between atoms: _61  and  _64
REMARK   28  A    between atoms: _64  and  _65
REMARK   29  A    between atoms: _67  and  _69
REMARK   30  A    between atoms: _69  and  _70
REMARK   31  A    between atoms: _69  and  _72
REMARK   32  A    between atoms: _74  and  _76
REMARK   33  A    between atoms: _76  and  _77
REMARK   34  A    between atoms: _76  and  _79
REMARK   35  A    between atoms: _79  and  _80
REMARK   36  A    between atoms: _83  and  _85
REMARK   37  A    between atoms: _85  and  _86
REMARK   38  A    between atoms: _85  and  _88
REMARK   39  A    between atoms: _88  and  _89
REMARK   40  A    between atoms: _95  and  _97
REMARK   41  A    between atoms: _97  and  _98
REMARK   42  A    between atoms: _97  and  _100
REMARK   43  A    between atoms: _100  and  _101
REMARK   44  A    between atoms: _101  and  _102
REMARK   45  A    between atoms: _102  and  _103
REMARK   46  A    between atoms: _113  and  _114
REMARK   47  A    between atoms: _119  and  _121
REMARK   48  A    between atoms: _121  and  _122
REMARK   49  A    between atoms: _121  and  _124
REMARK   50  A    between atoms: _124  and  _125
REMARK   51  A    between atoms: _125  and  _126
REMARK   52  A    between atoms: _129  and  _131
REMARK   53  A    between atoms: _131  and  _132
REMARK   54  A    between atoms: _135  and  _137
REMARK   55  A    between atoms: _137  and  _138
REMARK   56  A    between atoms: _137  and  _140
REMARK   57  A    between atoms: _143  and  _145
REMARK   58  A    between atoms: _145  and  _146
REMARK   59  A    between atoms: _145  and  _148
REMARK   60  A    between atoms: _148  and  _149
REMARK   61  A    between atoms: _155  and  _157
REMARK   62  A    between atoms: _157  and  _158
REMARK   63  A    between atoms: _157  and  _160
REMARK   64  A    between atoms: _160  and  _161
REMARK   65  A    between atoms: _164  and  _166
REMARK   66  A    between atoms: _166  and  _167
REMARK   67  A    between atoms: _166  and  _169
REMARK   68  A    between atoms: _169  and  _170
REMARK   69  A    between atoms: _176  and  _178
REMARK   70  A    between atoms: _178  and  _179
REMARK   71  A    between atoms: _178  and  _181
REMARK   72  A    between atoms: _181  and  _182
REMARK   73  A    between atoms: _185  and  _187
REMARK   74  A    between atoms: _187  and  _188
REMARK   75  A    between atoms: _187  and  _190
REMARK   76  A    between atoms: _190  and  _191
REMARK   77  A    between atoms: _191  and  _192
REMARK   78  A    between atoms: _197  and  _199
REMARK   79  A    between atoms: _199  and  _200
REMARK   80  A    between atoms: _199  and  _202
REMARK   81  A    between atoms: _202  and  _203
REMARK   82  A    between atoms: _208  and  _210
REMARK   83  A    between atoms: _210  and  _211
REMARK   84  A    between atoms: _210  and  _213
REMARK   85  A    between atoms: _213  and  _214
REMARK   86  A    between atoms: _217  and  _219
REMARK   87  A    between atoms: _219  and  _220
REMARK   88  A    between atoms: _219  and  _222
REMARK   89  A    between atoms: _222  and  _223
REMARK   90  A    between atoms: _228  and  _230
REMARK   91  A    between atoms: _230  and  _231
REMARK   92  A    between atoms: _230  and  _233
REMARK   93  A    between atoms: _233  and  _234
REMARK   94  A    between atoms: _237  and  _239
REMARK   95  A    between atoms: _239  and  _240
REMARK   96  A    between atoms: _239  and  _242
REMARK   97  A    between atoms: _245  and  _247
REMARK   98  A    between atoms: _247  and  _248
REMARK   99  A    between atoms: _247  and  _250
REMARK  100  A    between atoms: _250  and  _251
REMARK  101  A    between atoms: _257  and  _259
REMARK  102  A    between atoms: _259  and  _260
REMARK  103  A    between atoms: _259  and  _262
REMARK  104  A    between atoms: _265  and  _267
REMARK  105  A    between atoms: _267  and  _268
REMARK  106  A    between atoms: _267  and  _270
REMARK  107  A    between atoms: _273  and  _275
REMARK  108  A    between atoms: _275  and  _276
REMARK  109  A    between atoms: _278  and  _280
REMARK  110  A    between atoms: _280  and  _281
REMARK  111  A    between atoms: _280  and  _283
REMARK  112  A    between atoms: _283  and  _284
REMARK  113  A    between atoms: _287  and  _289
REMARK  114  A    between atoms: _289  and  _290
REMARK  115  A    between atoms: _289  and  _292
REMARK  116  A    between atoms: _292  and  _293
REMARK  117  A    between atoms: _295  and  _297
REMARK  118  A    between atoms: _297  and  _298
REMARK  119  A    between atoms: _297  and  _300
REMARK  120  A    between atoms: _300  and  _301
REMARK  121  A    between atoms: _304  and  _306
REMARK  122  A    between atoms: _306  and  _307
REMARK  123  A    between atoms: _310  and  _312
REMARK  124  A    between atoms: _312  and  _313
REMARK  125  A    between atoms: _312  and  _315
REMARK  126  A    between atoms: _318  and  _320
REMARK  127  A    between atoms: _320  and  _321
REMARK  128  A    between atoms: _320  and  _323
REMARK  129  A    between atoms: _323  and  _324
REMARK  130  A    between atoms: _329  and  _330
REMARK  131  A    between atoms: _332  and  _334
REMARK  132  A    between atoms: _334  and  _335
REMARK  133  A    between atoms: _334  and  _337
REMARK  134  A    between atoms: _337  and  _338
REMARK  135  A    between atoms: _344  and  _346
REMARK  136  A    between atoms: _346  and  _347
REMARK  137  A    between atoms: _346  and  _349
REMARK  138  A    between atoms: _349  and  _350
REMARK  139  A    between atoms: _353  and  _355
REMARK  140  A    between atoms: _355  and  _356
REMARK  141  A    between atoms: _355  and  _358
REMARK  142  A    between atoms: _360  and  _362
REMARK  143  A    between atoms: _362  and  _363
REMARK  144  A    between atoms: _362  and  _365
REMARK  145  A    between atoms: _365  and  _366
REMARK  146  A    between atoms: _371  and  _373
REMARK  147  A    between atoms: _373  and  _374
REMARK  148  A    between atoms: _373  and  _376
REMARK  149  A    between atoms: _376  and  _377
REMARK  150  A    between atoms: _380  and  _382
REMARK  151  A    between atoms: _382  and  _383
REMARK  152  A    between atoms: _382  and  _385
REMARK  153  A    between atoms: _385  and  _386
REMARK  154  A    between atoms: _386  and  _387
REMARK  155  A    between atoms: _390  and  _392
REMARK  156  A    between atoms: _392  and  _393
REMARK  157  A    between atoms: _392  and  _395
REMARK  158  A    between atoms: _395  and  _396
REMARK  159  A    between atoms: _399  and  _401
REMARK  160  A    between atoms: _401  and  _402
REMARK  161  A    between atoms: _401  and  _404
REMARK  162  A    between atoms: _407  and  _409
REMARK  163  A    between atoms: _409  and  _410
REMARK  164  A    between atoms: _412  and  _414
REMARK  165  A    between atoms: _414  and  _415
REMARK  166  A    between atoms: _414  and  _417
REMARK  167  A    between atoms: _420  and  _422
REMARK  168  A    between atoms: _422  and  _423
REMARK  169  A    between atoms: _422  and  _425
REMARK  170  A    between atoms: _425  and  _426
REMARK  171  A    between atoms: _431  and  _433
REMARK  172  A    between atoms: _433  and  _434
REMARK  173  A    between atoms: _433  and  _436
REMARK  174  A    between atoms: _436  and  _437
REMARK  175  A    between atoms: _437  and  _438
REMARK  176  A    between atoms: _443  and  _445
REMARK  177  A    between atoms: _445  and  _446
REMARK  178  A    between atoms: _445  and  _448
REMARK  179  A    between atoms: _448  and  _449
REMARK  180  A    between atoms: _454  and  _455
REMARK  181  A    between atoms: _457  and  _459
REMARK  182  A    between atoms: _459  and  _460
REMARK  183  A    between atoms: _459  and  _462
REMARK  184  A    between atoms: _462  and  _463
REMARK  185  A    between atoms: _465  and  _467
REMARK  186  A    between atoms: _467  and  _468
REMARK  187  A    between atoms: _467  and  _470
REMARK  188  A    between atoms: _470  and  _471
REMARK  189  A    between atoms: _474  and  _476
REMARK  190  A    between atoms: _476  and  _477
REMARK  191  A    between atoms: _476  and  _479
REMARK  192  A    between atoms: _479  and  _480
REMARK  193  A    between atoms: _480  and  _481
REMARK  194  A    between atoms: _484  and  _486
REMARK  195  A    between atoms: _486  and  _487
REMARK  196  A    between atoms: _486  and  _489
REMARK  197  A    between atoms: _489  and  _490
REMARK  198  A    between atoms: _496  and  _498
REMARK  199  A    between atoms: _498  and  _499
REMARK                            x       y       z     vdW  Elec       q    Type
REMARK                         _______ _______ _______ _____ _____    ______ ____
ROOT
ATOM      1  O   HOH     1     -12.141  39.487 -41.272  0.00  0.00    +0.000 OA
ENDROOT
TORSDOF 0
REMARK  Name = ../refined-set-2016/1szd/1szd_pocket.pdb
REMARK  199 active torsions:
REMARK  status: ('A' for Active; 'I' for Inactive)
REMARK    1  A    between atoms: _1  and  _3
REMARK    2  A    between atoms: _3  and  _4
REMARK    3  A    between atoms: _3  and  _6
REMARK    4  A    between atoms: _9  and  _11
REMARK    5  A    between atoms: _11  and  _12
REMARK    6  A    between atoms: _11  and  _14
REMARK    7  A    between atoms: _17  and  _19
REMARK    8  A    between atoms: _19  and  _20
REMARK    9  A    between atoms: _22  and  _24
REMARK   10  A    between atoms: _24  and  _25
REMARK   11  A    between atoms: _28  and  _30
REMARK   12  A    between atoms: _30  and  _31
REMARK   13  A    between atoms: _33  and  _35
REMARK   14  A    between atoms: _35  and  _36
REMARK   15  A    between atoms: _35  and  _38
REMARK   16  A    between atoms: _38  and  _39
REMARK   17  A    between atoms: _42  and  _44
REMARK   18  A    between atoms: _44  and  _45
REMARK   19  A    between atoms: _44  and  _47
REMARK   20  A    between atoms: _47  and  _48
REMARK   21  A    between atoms: _50  and  _52
REMARK   22  A    between atoms: _52  and  _53
REMARK   23  A    between atoms: _52  and  _55
REMARK   24  A    between atoms: _55  and  _56
REMARK   25  A    between atoms: _59  and  _61
REMARK   26  A    between atoms: _61  and  _62
REMARK   27  A    between atoms: _61  and  _64
REMARK   28  A    between atoms: _64  and  _65
REMARK   29  A    between atoms: _67  and  _69
REMARK   30  A    between atoms: _69  and  _70
REMARK   31  A    between atoms: _69  and  _72
REMARK   32  A    between atoms: _74  and  _76
REMARK   33  A    between atoms: _76  and  _77
REMARK   34  A    between atoms: _76  and  _79
REMARK   35  A    between atoms: _79  and  _80
REMARK   36  A    between atoms: _83  and  _85
REMARK   37  A    between atoms: _85  and  _86
REMARK   38  A    between atoms: _85  and  _88
REMARK   39  A    between atoms: _88  and  _89
REMARK   40  A    between atoms: _95  and  _97
REMARK   41  A    between atoms: _97  and  _98
REMARK   42  A    between atoms: _97  and  _100
REMARK   43  A    between atoms: _100  and  _101
REMARK   44  A    between atoms: _101  and  _102
REMARK   45  A    between atoms: _102  and  _103
REMARK   46  A    between atoms: _113  and  _114
REMARK   47  A    between atoms: _119  and  _121
REMARK   48  A    between atoms: _121  and  _122
REMARK   49  A    between atoms: _121  and  _124
REMARK   50  A    between atoms: _124  and  _125
REMARK   51  A    between atoms: _125  and  _126
REMARK   52  A    between atoms: _129  and  _131
REMARK   53  A    between atoms: _131  and  _132
REMARK   54  A    between atoms: _135  and  _137
REMARK   55  A    between atoms: _137  and  _138
REMARK   56  A    between atoms: _137  and  _140
REMARK   57  A    between atoms: _143  and  _145
REMARK   58  A    between atoms: _145  and  _146
REMARK   59  A    between atoms: _145  and  _148
REMARK   60  A    between atoms: _148  and  _149
REMARK   61  A    between atoms: _155  and  _157
REMARK   62  A    between atoms: _157  and  _158
REMARK   63  A    between atoms: _157  and  _160
REMARK   64  A    between atoms: _160  and  _161
REMARK   65  A    between atoms: _164  and  _166
REMARK   66  A    between atoms: _166  and  _167
REMARK   67  A    between atoms: _166  and  _169
REMARK   68  A    between atoms: _169  and  _170
REMARK   69  A    between atoms: _176  and  _178
REMARK   70  A    between atoms: _178  and  _179
REMARK   71  A    between atoms: _178  and  _181
REMARK   72  A    between atoms: _181  and  _182
REMARK   73  A    between atoms: _185  and  _187
REMARK   74  A    between atoms: _187  and  _188
REMARK   75  A    between atoms: _187  and  _190
REMARK   76  A    between atoms: _190  and  _191
REMARK   77  A    between atoms: _191  and  _192
REMARK   78  A    between atoms: _197  and  _199
REMARK   79  A    between atoms: _199  and  _200
REMARK   80  A    between atoms: _199  and  _202
REMARK   81  A    between atoms: _202  and  _203
REMARK   82  A    between atoms: _208  and  _210
REMARK   83  A    between atoms: _210  and  _211
REMARK   84  A    between atoms: _210  and  _213
REMARK   85  A    between atoms: _213  and  _214
REMARK   86  A    between atoms: _217  and  _219
REMARK   87  A    between atoms: _219  and  _220
REMARK   88  A    between atoms: _219  and  _222
REMARK   89  A    between atoms: _222  and  _223
REMARK   90  A    between atoms: _228  and  _230
REMARK   91  A    between atoms: _230  and  _231
REMARK   92  A    between atoms: _230  and  _233
REMARK   93  A    between atoms: _233  and  _234
REMARK   94  A    between atoms: _237  and  _239
REMARK   95  A    between atoms: _239  and  _240
REMARK   96  A    between atoms: _239  and  _242
REMARK   97  A    between atoms: _245  and  _247
REMARK   98  A    between atoms: _247  and  _248
REMARK   99  A    between atoms: _247  and  _250
REMARK  100  A    between atoms: _250  and  _251
REMARK  101  A    between atoms: _257  and  _259
REMARK  102  A    between atoms: _259  and  _260
REMARK  103  A    between atoms: _259  and  _262
REMARK  104  A    between atoms: _265  and  _267
REMARK  105  A    between atoms: _267  and  _268
REMARK  106  A    between atoms: _267  and  _270
REMARK  107  A    between atoms: _273  and  _275
REMARK  108  A    between atoms: _275  and  _276
REMARK  109  A    between atoms: _278  and  _280
REMARK  110  A    between atoms: _280  and  _281
REMARK  111  A    between atoms: _280  and  _283
REMARK  112  A    between atoms: _283  and  _284
REMARK  113  A    between atoms: _287  and  _289
REMARK  114  A    between atoms: _289  and  _290
REMARK  115  A    between atoms: _289  and  _292
REMARK  116  A    between atoms: _292  and  _293
REMARK  117  A    between atoms: _295  and  _297
REMARK  118  A    between atoms: _297  and  _298
REMARK  119  A    between atoms: _297  and  _300
REMARK  120  A    between atoms: _300  and  _301
REMARK  121  A    between atoms: _304  and  _306
REMARK  122  A    between atoms: _306  and  _307
REMARK  123  A    between atoms: _310  and  _312
REMARK  124  A    between atoms: _312  and  _313
REMARK  125  A    between atoms: _312  and  _315
REMARK  126  A    between atoms: _318  and  _320
REMARK  127  A    between atoms: _320  and  _321
REMARK  128  A    between atoms: _320  and  _323
REMARK  129  A    between atoms: _323  and  _324
REMARK  130  A    between atoms: _329  and  _330
REMARK  131  A    between atoms: _332  and  _334
REMARK  132  A    between atoms: _334  and  _335
REMARK  133  A    between atoms: _334  and  _337
REMARK  134  A    between atoms: _337  and  _338
REMARK  135  A    between atoms: _344  and  _346
REMARK  136  A    between atoms: _346  and  _347
REMARK  137  A    between atoms: _346  and  _349
REMARK  138  A    between atoms: _349  and  _350
REMARK  139  A    between atoms: _353  and  _355
REMARK  140  A    between atoms: _355  and  _356
REMARK  141  A    between atoms: _355  and  _358
REMARK  142  A    between atoms: _360  and  _362
REMARK  143  A    between atoms: _362  and  _363
REMARK  144  A    between atoms: _362  and  _365
REMARK  145  A    between atoms: _365  and  _366
REMARK  146  A    between atoms: _371  and  _373
REMARK  147  A    between atoms: _373  and  _374
REMARK  148  A    between atoms: _373  and  _376
REMARK  149  A    between atoms: _376  and  _377
REMARK  150  A    between atoms: _380  and  _382
REMARK  151  A    between atoms: _382  and  _383
REMARK  152  A    between atoms: _382  and  _385
REMARK  153  A    between atoms: _385  and  _386
REMARK  154  A    between atoms: _386  and  _387
REMARK  155  A    between atoms: _390  and  _392
REMARK  156  A    between atoms: _392  and  _393
REMARK  157  A    between atoms: _392  and  _395
REMARK  158  A    between atoms: _395  and  _396
REMARK  159  A    between atoms: _399  and  _401
REMARK  160  A    between atoms: _401  and  _402
REMARK  161  A    between atoms: _401  and  _404
REMARK  162  A    between atoms: _407  and  _409
REMARK  163  A    between atoms: _409  and  _410
REMARK  164  A    between atoms: _412  and  _414
REMARK  165  A    between atoms: _414  and  _415
REMARK  166  A    between atoms: _414  and  _417
REMARK  167  A    between atoms: _420  and  _422
REMARK  168  A    between atoms: _422  and  _423
REMARK  169  A    between atoms: _422  and  _425
REMARK  170  A    between atoms: _425  and  _426
REMARK  171  A    between atoms: _431  and  _433
REMARK  172  A    between atoms: _433  and  _434
REMARK  173  A    between atoms: _433  and  _436
REMARK  174  A    between atoms: _436  and  _437
REMARK  175  A    between atoms: _437  and  _438
REMARK  176  A    between atoms: _443  and  _445
REMARK  177  A    between atoms: _445  and  _446
REMARK  178  A    between atoms: _445  and  _448
REMARK  179  A    between atoms: _448  and  _449
REMARK  180  A    between atoms: _454  and  _455
REMARK  181  A    between atoms: _457  and  _459
REMARK  182  A    between atoms: _459  and  _460
REMARK  183  A    between atoms: _459  and  _462
REMARK  184  A    between atoms: _462  and  _463
REMARK  185  A    between atoms: _465  and  _467
REMARK  186  A    between atoms: _467  and  _468
REMARK  187  A    between atoms: _467  and  _470
REMARK  188  A    between atoms: _470  and  _471
REMARK  189  A    between atoms: _474  and  _476
REMARK  190  A    between atoms: _476  and  _477
REMARK  191  A    between atoms: _476  and  _479
REMARK  192  A    between atoms: _479  and  _480
REMARK  193  A    between atoms: _480  and  _481
REMARK  194  A    between atoms: _484  and  _486
REMARK  195  A    between atoms: _486  and  _487
REMARK  196  A    between atoms: _486  and  _489
REMARK  197  A    between atoms: _489  and  _490
REMARK  198  A    between atoms: _496  and  _498
REMARK  199  A    between atoms: _498  and  _499
REMARK                            x       y       z     vdW  Elec       q    Type
REMARK                         _______ _______ _______ _____ _____    ______ ____
ROOT
ATOM      1  O   HOH     1      -8.672  32.476 -50.093  0.00  0.00    +0.000 OA
ENDROOT
TORSDOF 0
REMARK  Name = ../refined-set-2016/1szd/1szd_pocket.pdb
REMARK  199 active torsions:
REMARK  status: ('A' for Active; 'I' for Inactive)
REMARK    1  A    between atoms: _1  and  _3
REMARK    2  A    between atoms: _3  and  _4
REMARK    3  A    between atoms: _3  and  _6
REMARK    4  A    between atoms: _9  and  _11
REMARK    5  A    between atoms: _11  and  _12
REMARK    6  A    between atoms: _11  and  _14
REMARK    7  A    between atoms: _17  and  _19
REMARK    8  A    between atoms: _19  and  _20
REMARK    9  A    between atoms: _22  and  _24
REMARK   10  A    between atoms: _24  and  _25
REMARK   11  A    between atoms: _28  and  _30
REMARK   12  A    between atoms: _30  and  _31
REMARK   13  A    between atoms: _33  and  _35
REMARK   14  A    between atoms: _35  and  _36
REMARK   15  A    between atoms: _35  and  _38
REMARK   16  A    between atoms: _38  and  _39
REMARK   17  A    between atoms: _42  and  _44
REMARK   18  A    between atoms: _44  and  _45
REMARK   19  A    between atoms: _44  and  _47
REMARK   20  A    between atoms: _47  and  _48
REMARK   21  A    between atoms: _50  and  _52
REMARK   22  A    between atoms: _52  and  _53
REMARK   23  A    between atoms: _52  and  _55
REMARK   24  A    between atoms: _55  and  _56
REMARK   25  A    between atoms: _59  and  _61
REMARK   26  A    between atoms: _61  and  _62
REMARK   27  A    between atoms: _61  and  _64
REMARK   28  A    between atoms: _64  and  _65
REMARK   29  A    between atoms: _67  and  _69
REMARK   30  A    between atoms: _69  and  _70
REMARK   31  A    between atoms: _69  and  _72
REMARK   32  A    between atoms: _74  and  _76
REMARK   33  A    between atoms: _76  and  _77
REMARK   34  A    between atoms: _76  and  _79
REMARK   35  A    between atoms: _79  and  _80
REMARK   36  A    between atoms: _83  and  _85
REMARK   37  A    between atoms: _85  and  _86
REMARK   38  A    between atoms: _85  and  _88
REMARK   39  A    between atoms: _88  and  _89
REMARK   40  A    between atoms: _95  and  _97
REMARK   41  A    between atoms: _97  and  _98
REMARK   42  A    between atoms: _97  and  _100
REMARK   43  A    between atoms: _100  and  _101
REMARK   44  A    between atoms: _101  and  _102
REMARK   45  A    between atoms: _102  and  _103
REMARK   46  A    between atoms: _113  and  _114
REMARK   47  A    between atoms: _119  and  _121
REMARK   48  A    between atoms: _121  and  _122
REMARK   49  A    between atoms: _121  and  _124
REMARK   50  A    between atoms: _124  and  _125
REMARK   51  A    between atoms: _125  and  _126
REMARK   52  A    between atoms: _129  and  _131
REMARK   53  A    between atoms: _131  and  _132
REMARK   54  A    between atoms: _135  and  _137
REMARK   55  A    between atoms: _137  and  _138
REMARK   56  A    between atoms: _137  and  _140
REMARK   57  A    between atoms: _143  and  _145
REMARK   58  A    between atoms: _145  and  _146
REMARK   59  A    between atoms: _145  and  _148
REMARK   60  A    between atoms: _148  and  _149
REMARK   61  A    between atoms: _155  and  _157
REMARK   62  A    between atoms: _157  and  _158
REMARK   63  A    between atoms: _157  and  _160
REMARK   64  A    between atoms: _160  and  _161
REMARK   65  A    between atoms: _164  and  _166
REMARK   66  A    between atoms: _166  and  _167
REMARK   67  A    between atoms: _166  and  _169
REMARK   68  A    between atoms: _169  and  _170
REMARK   69  A    between atoms: _176  and  _178
REMARK   70  A    between atoms: _178  and  _179
REMARK   71  A    between atoms: _178  and  _181
REMARK   72  A    between atoms: _181  and  _182
REMARK   73  A    between atoms: _185  and  _187
REMARK   74  A    between atoms: _187  and  _188
REMARK   75  A    between atoms: _187  and  _190
REMARK   76  A    between atoms: _190  and  _191
REMARK   77  A    between atoms: _191  and  _192
REMARK   78  A    between atoms: _197  and  _199
REMARK   79  A    between atoms: _199  and  _200
REMARK   80  A    between atoms: _199  and  _202
REMARK   81  A    between atoms: _202  and  _203
REMARK   82  A    between atoms: _208  and  _210
REMARK   83  A    between atoms: _210  and  _211
REMARK   84  A    between atoms: _210  and  _213
REMARK   85  A    between atoms: _213  and  _214
REMARK   86  A    between atoms: _217  and  _219
REMARK   87  A    between atoms: _219  and  _220
REMARK   88  A    between atoms: _219  and  _222
REMARK   89  A    between atoms: _222  and  _223
REMARK   90  A    between atoms: _228  and  _230
REMARK   91  A    between atoms: _230  and  _231
REMARK   92  A    between atoms: _230  and  _233
REMARK   93  A    between atoms: _233  and  _234
REMARK   94  A    between atoms: _237  and  _239
REMARK   95  A    between atoms: _239  and  _240
REMARK   96  A    between atoms: _239  and  _242
REMARK   97  A    between atoms: _245  and  _247
REMARK   98  A    between atoms: _247  and  _248
REMARK   99  A    between atoms: _247  and  _250
REMARK  100  A    between atoms: _250  and  _251
REMARK  101  A    between atoms: _257  and  _259
REMARK  102  A    between atoms: _259  and  _260
REMARK  103  A    between atoms: _259  and  _262
REMARK  104  A    between atoms: _265  and  _267
REMARK  105  A    between atoms: _267  and  _268
REMARK  106  A    between atoms: _267  and  _270
REMARK  107  A    between atoms: _273  and  _275
REMARK  108  A    between atoms: _275  and  _276
REMARK  109  A    between atoms: _278  and  _280
REMARK  110  A    between atoms: _280  and  _281
REMARK  111  A    between atoms: _280  and  _283
REMARK  112  A    between atoms: _283  and  _284
REMARK  113  A    between atoms: _287  and  _289
REMARK  114  A    between atoms: _289  and  _290
REMARK  115  A    between atoms: _289  and  _292
REMARK  116  A    between atoms: _292  and  _293
REMARK  117  A    between atoms: _295  and  _297
REMARK  118  A    between atoms: _297  and  _298
REMARK  119  A    between atoms: _297  and  _300
REMARK  120  A    between atoms: _300  and  _301
REMARK  121  A    between atoms: _304  and  _306
REMARK  122  A    between atoms: _306  and  _307
REMARK  123  A    between atoms: _310  and  _312
REMARK  124  A    between atoms: _312  and  _313
REMARK  125  A    between atoms: _312  and  _315
REMARK  126  A    between atoms: _318  and  _320
REMARK  127  A    between atoms: _320  and  _321
REMARK  128  A    between atoms: _320  and  _323
REMARK  129  A    between atoms: _323  and  _324
REMARK  130  A    between atoms: _329  and  _330
REMARK  131  A    between atoms: _332  and  _334
REMARK  132  A    between atoms: _334  and  _335
REMARK  133  A    between atoms: _334  and  _337
REMARK  134  A    between atoms: _337  and  _338
REMARK  135  A    between atoms: _344  and  _346
REMARK  136  A    between atoms: _346  and  _347
REMARK  137  A    between atoms: _346  and  _349
REMARK  138  A    between atoms: _349  and  _350
REMARK  139  A    between atoms: _353  and  _355
REMARK  140  A    between atoms: _355  and  _356
REMARK  141  A    between atoms: _355  and  _358
REMARK  142  A    between atoms: _360  and  _362
REMARK  143  A    between atoms: _362  and  _363
REMARK  144  A    between atoms: _362  and  _365
REMARK  145  A    between atoms: _365  and  _366
REMARK  146  A    between atoms: _371  and  _373
REMARK  147  A    between atoms: _373  and  _374
REMARK  148  A    between atoms: _373  and  _376
REMARK  149  A    between atoms: _376  and  _377
REMARK  150  A    between atoms: _380  and  _382
REMARK  151  A    between atoms: _382  and  _383
REMARK  152  A    between atoms: _382  and  _385
REMARK  153  A    between atoms: _385  and  _386
REMARK  154  A    between atoms: _386  and  _387
REMARK  155  A    between atoms: _390  and  _392
REMARK  156  A    between atoms: _392  and  _393
REMARK  157  A    between atoms: _392  and  _395
REMARK  158  A    between atoms: _395  and  _396
REMARK  159  A    between atoms: _399  and  _401
REMARK  160  A    between atoms: _401  and  _402
REMARK  161  A    between atoms: _401  and  _404
REMARK  162  A    between atoms: _407  and  _409
REMARK  163  A    between atoms: _409  and  _410
REMARK  164  A    between atoms: _412  and  _414
REMARK  165  A    between atoms: _414  and  _415
REMARK  166  A    between atoms: _414  and  _417
REMARK  167  A    between atoms: _420  and  _422
REMARK  168  A    between atoms: _422  and  _423
REMARK  169  A    between atoms: _422  and  _425
REMARK  170  A    between atoms: _425  and  _426
REMARK  171  A    between atoms: _431  and  _433
REMARK  172  A    between atoms: _433  and  _434
REMARK  173  A    between atoms: _433  and  _436
REMARK  174  A    between atoms: _436  and  _437
REMARK  175  A    between atoms: _437  and  _438
REMARK  176  A    between atoms: _443  and  _445
REMARK  177  A    between atoms: _445  and  _446
REMARK  178  A    between atoms: _445  and  _448
REMARK  179  A    between atoms: _448  and  _449
REMARK  180  A    between atoms: _454  and  _455
REMARK  181  A    between atoms: _457  and  _459
REMARK  182  A    between atoms: _459  and  _460
REMARK  183  A    between atoms: _459  and  _462
REMARK  184  A    between atoms: _462  and  _463
REMARK  185  A    between atoms: _465  and  _467
REMARK  186  A    between atoms: _467  and  _468
REMARK  187  A    between atoms: _467  and  _470
REMARK  188  A    between atoms: _470  and  _471
REMARK  189  A    between atoms: _474  and  _476
REMARK  190  A    between atoms: _476  and  _477
REMARK  191  A    between atoms: _476  and  _479
REMARK  192  A    between atoms: _479  and  _480
REMARK  193  A    between atoms: _480  and  _481
REMARK  194  A    between atoms: _484  and  _486
REMARK  195  A    between atoms: _486  and  _487
REMARK  196  A    between atoms: _486  and  _489
REMARK  197  A    between atoms: _489  and  _490
REMARK  198  A    between atoms: _496  and  _498
REMARK  199  A    between atoms: _498  and  _499
REMARK                            x       y       z     vdW  Elec       q    Type
REMARK                         _______ _______ _______ _____ _____    ______ ____
ROOT
ATOM      1  O   HOH     1     -16.007  24.727 -34.802  0.00  0.00    +0.000 OA
ENDROOT
TORSDOF 0
REMARK  Name = ../refined-set-2016/1szd/1szd_pocket.pdb
REMARK  199 active torsions:
REMARK  status: ('A' for Active; 'I' for Inactive)
REMARK    1  A    between atoms: _1  and  _3
REMARK    2  A    between atoms: _3  and  _4
REMARK    3  A    between atoms: _3  and  _6
REMARK    4  A    between atoms: _9  and  _11
REMARK    5  A    between atoms: _11  and  _12
REMARK    6  A    between atoms: _11  and  _14
REMARK    7  A    between atoms: _17  and  _19
REMARK    8  A    between atoms: _19  and  _20
REMARK    9  A    between atoms: _22  and  _24
REMARK   10  A    between atoms: _24  and  _25
REMARK   11  A    between atoms: _28  and  _30
REMARK   12  A    between atoms: _30  and  _31
REMARK   13  A    between atoms: _33  and  _35
REMARK   14  A    between atoms: _35  and  _36
REMARK   15  A    between atoms: _35  and  _38
REMARK   16  A    between atoms: _38  and  _39
REMARK   17  A    between atoms: _42  and  _44
REMARK   18  A    between atoms: _44  and  _45
REMARK   19  A    between atoms: _44  and  _47
REMARK   20  A    between atoms: _47  and  _48
REMARK   21  A    between atoms: _50  and  _52
REMARK   22  A    between atoms: _52  and  _53
REMARK   23  A    between atoms: _52  and  _55
REMARK   24  A    between atoms: _55  and  _56
REMARK   25  A    between atoms: _59  and  _61
REMARK   26  A    between atoms: _61  and  _62
REMARK   27  A    between atoms: _61  and  _64
REMARK   28  A    between atoms: _64  and  _65
REMARK   29  A    between atoms: _67  and  _69
REMARK   30  A    between atoms: _69  and  _70
REMARK   31  A    between atoms: _69  and  _72
REMARK   32  A    between atoms: _74  and  _76
REMARK   33  A    between atoms: _76  and  _77
REMARK   34  A    between atoms: _76  and  _79
REMARK   35  A    between atoms: _79  and  _80
REMARK   36  A    between atoms: _83  and  _85
REMARK   37  A    between atoms: _85  and  _86
REMARK   38  A    between atoms: _85  and  _88
REMARK   39  A    between atoms: _88  and  _89
REMARK   40  A    between atoms: _95  and  _97
REMARK   41  A    between atoms: _97  and  _98
REMARK   42  A    between atoms: _97  and  _100
REMARK   43  A    between atoms: _100  and  _101
REMARK   44  A    between atoms: _101  and  _102
REMARK   45  A    between atoms: _102  and  _103
REMARK   46  A    between atoms: _113  and  _114
REMARK   47  A    between atoms: _119  and  _121
REMARK   48  A    between atoms: _121  and  _122
REMARK   49  A    between atoms: _121  and  _124
REMARK   50  A    between atoms: _124  and  _125
REMARK   51  A    between atoms: _125  and  _126
REMARK   52  A    between atoms: _129  and  _131
REMARK   53  A    between atoms: _131  and  _132
REMARK   54  A    between atoms: _135  and  _137
REMARK   55  A    between atoms: _137  and  _138
REMARK   56  A    between atoms: _137  and  _140
REMARK   57  A    between atoms: _143  and  _145
REMARK   58  A    between atoms: _145  and  _146
REMARK   59  A    between atoms: _145  and  _148
REMARK   60  A    between atoms: _148  and  _149
REMARK   61  A    between atoms: _155  and  _157
REMARK   62  A    between atoms: _157  and  _158
REMARK   63  A    between atoms: _157  and  _160
REMARK   64  A    between atoms: _160  and  _161
REMARK   65  A    between atoms: _164  and  _166
REMARK   66  A    between atoms: _166  and  _167
REMARK   67  A    between atoms: _166  and  _169
REMARK   68  A    between atoms: _169  and  _170
REMARK   69  A    between atoms: _176  and  _178
REMARK   70  A    between atoms: _178  and  _179
REMARK   71  A    between atoms: _178  and  _181
REMARK   72  A    between atoms: _181  and  _182
REMARK   73  A    between atoms: _185  and  _187
REMARK   74  A    between atoms: _187  and  _188
REMARK   75  A    between atoms: _187  and  _190
REMARK   76  A    between atoms: _190  and  _191
REMARK   77  A    between atoms: _191  and  _192
REMARK   78  A    between atoms: _197  and  _199
REMARK   79  A    between atoms: _199  and  _200
REMARK   80  A    between atoms: _199  and  _202
REMARK   81  A    between atoms: _202  and  _203
REMARK   82  A    between atoms: _208  and  _210
REMARK   83  A    between atoms: _210  and  _211
REMARK   84  A    between atoms: _210  and  _213
REMARK   85  A    between atoms: _213  and  _214
REMARK   86  A    between atoms: _217  and  _219
REMARK   87  A    between atoms: _219  and  _220
REMARK   88  A    between atoms: _219  and  _222
REMARK   89  A    between atoms: _222  and  _223
REMARK   90  A    between atoms: _228  and  _230
REMARK   91  A    between atoms: _230  and  _231
REMARK   92  A    between atoms: _230  and  _233
REMARK   93  A    between atoms: _233  and  _234
REMARK   94  A    between atoms: _237  and  _239
REMARK   95  A    between atoms: _239  and  _240
REMARK   96  A    between atoms: _239  and  _242
REMARK   97  A    between atoms: _245  and  _247
REMARK   98  A    between atoms: _247  and  _248
REMARK   99  A    between atoms: _247  and  _250
REMARK  100  A    between atoms: _250  and  _251
REMARK  101  A    between atoms: _257  and  _259
REMARK  102  A    between atoms: _259  and  _260
REMARK  103  A    between atoms: _259  and  _262
REMARK  104  A    between atoms: _265  and  _267
REMARK  105  A    between atoms: _267  and  _268
REMARK  106  A    between atoms: _267  and  _270
REMARK  107  A    between atoms: _273  and  _275
REMARK  108  A    between atoms: _275  and  _276
REMARK  109  A    between atoms: _278  and  _280
REMARK  110  A    between atoms: _280  and  _281
REMARK  111  A    between atoms: _280  and  _283
REMARK  112  A    between atoms: _283  and  _284
REMARK  113  A    between atoms: _287  and  _289
REMARK  114  A    between atoms: _289  and  _290
REMARK  115  A    between atoms: _289  and  _292
REMARK  116  A    between atoms: _292  and  _293
REMARK  117  A    between atoms: _295  and  _297
REMARK  118  A    between atoms: _297  and  _298
REMARK  119  A    between atoms: _297  and  _300
REMARK  120  A    between atoms: _300  and  _301
REMARK  121  A    between atoms: _304  and  _306
REMARK  122  A    between atoms: _306  and  _307
REMARK  123  A    between atoms: _310  and  _312
REMARK  124  A    between atoms: _312  and  _313
REMARK  125  A    between atoms: _312  and  _315
REMARK  126  A    between atoms: _318  and  _320
REMARK  127  A    between atoms: _320  and  _321
REMARK  128  A    between atoms: _320  and  _323
REMARK  129  A    between atoms: _323  and  _324
REMARK  130  A    between atoms: _329  and  _330
REMARK  131  A    between atoms: _332  and  _334
REMARK  132  A    between atoms: _334  and  _335
REMARK  133  A    between atoms: _334  and  _337
REMARK  134  A    between atoms: _337  and  _338
REMARK  135  A    between atoms: _344  and  _346
REMARK  136  A    between atoms: _346  and  _347
REMARK  137  A    between atoms: _346  and  _349
REMARK  138  A    between atoms: _349  and  _350
REMARK  139  A    between atoms: _353  and  _355
REMARK  140  A    between atoms: _355  and  _356
REMARK  141  A    between atoms: _355  and  _358
REMARK  142  A    between atoms: _360  and  _362
REMARK  143  A    between atoms: _362  and  _363
REMARK  144  A    between atoms: _362  and  _365
REMARK  145  A    between atoms: _365  and  _366
REMARK  146  A    between atoms: _371  and  _373
REMARK  147  A    between atoms: _373  and  _374
REMARK  148  A    between atoms: _373  and  _376
REMARK  149  A    between atoms: _376  and  _377
REMARK  150  A    between atoms: _380  and  _382
REMARK  151  A    between atoms: _382  and  _383
REMARK  152  A    between atoms: _382  and  _385
REMARK  153  A    between atoms: _385  and  _386
REMARK  154  A    between atoms: _386  and  _387
REMARK  155  A    between atoms: _390  and  _392
REMARK  156  A    between atoms: _392  and  _393
REMARK  157  A    between atoms: _392  and  _395
REMARK  158  A    between atoms: _395  and  _396
REMARK  159  A    between atoms: _399  and  _401
REMARK  160  A    between atoms: _401  and  _402
REMARK  161  A    between atoms: _401  and  _404
REMARK  162  A    between atoms: _407  and  _409
REMARK  163  A    between atoms: _409  and  _410
REMARK  164  A    between atoms: _412  and  _414
REMARK  165  A    between atoms: _414  and  _415
REMARK  166  A    between atoms: _414  and  _417
REMARK  167  A    between atoms: _420  and  _422
REMARK  168  A    between atoms: _422  and  _423
REMARK  169  A    between atoms: _422  and  _425
REMARK  170  A    between atoms: _425  and  _426
REMARK  171  A    between atoms: _431  and  _433
REMARK  172  A    between atoms: _433  and  _434
REMARK  173  A    between atoms: _433  and  _436
REMARK  174  A    between atoms: _436  and  _437
REMARK  175  A    between atoms: _437  and  _438
REMARK  176  A    between atoms: _443  and  _445
REMARK  177  A    between atoms: _445  and  _446
REMARK  178  A    between atoms: _445  and  _448
REMARK  179  A    between atoms: _448  and  _449
REMARK  180  A    between atoms: _454  and  _455
REMARK  181  A    between atoms: _457  and  _459
REMARK  182  A    between atoms: _459  and  _460
REMARK  183  A    between atoms: _459  and  _462
REMARK  184  A    between atoms: _462  and  _463
REMARK  185  A    between atoms: _465  and  _467
REMARK  186  A    between atoms: _467  and  _468
REMARK  187  A    between atoms: _467  and  _470
REMARK  188  A    between atoms: _470  and  _471
REMARK  189  A    between atoms: _474  and  _476
REMARK  190  A    between atoms: _476  and  _477
REMARK  191  A    between atoms: _476  and  _479
REMARK  192  A    between atoms: _479  and  _480
REMARK  193  A    between atoms: _480  and  _481
REMARK  194  A    between atoms: _484  and  _486
REMARK  195  A    between atoms: _486  and  _487
REMARK  196  A    between atoms: _486  and  _489
REMARK  197  A    between atoms: _489  and  _490
REMARK  198  A    between atoms: _496  and  _498
REMARK  199  A    between atoms: _498  and  _499
REMARK                            x       y       z     vdW  Elec       q    Type
REMARK                         _______ _______ _______ _____ _____    ______ ____
ROOT
ATOM      1  O   HOH     1      -3.993  33.910 -55.619  0.00  0.00    +0.000 OA
ENDROOT
TORSDOF 0
REMARK  Name = ../refined-set-2016/1szd/1szd_pocket.pdb
REMARK  199 active torsions:
REMARK  status: ('A' for Active; 'I' for Inactive)
REMARK    1  A    between atoms: _1  and  _3
REMARK    2  A    between atoms: _3  and  _4
REMARK    3  A    between atoms: _3  and  _6
REMARK    4  A    between atoms: _9  and  _11
REMARK    5  A    between atoms: _11  and  _12
REMARK    6  A    between atoms: _11  and  _14
REMARK    7  A    between atoms: _17  and  _19
REMARK    8  A    between atoms: _19  and  _20
REMARK    9  A    between atoms: _22  and  _24
REMARK   10  A    between atoms: _24  and  _25
REMARK   11  A    between atoms: _28  and  _30
REMARK   12  A    between atoms: _30  and  _31
REMARK   13  A    between atoms: _33  and  _35
REMARK   14  A    between atoms: _35  and  _36
REMARK   15  A    between atoms: _35  and  _38
REMARK   16  A    between atoms: _38  and  _39
REMARK   17  A    between atoms: _42  and  _44
REMARK   18  A    between atoms: _44  and  _45
REMARK   19  A    between atoms: _44  and  _47
REMARK   20  A    between atoms: _47  and  _48
REMARK   21  A    between atoms: _50  and  _52
REMARK   22  A    between atoms: _52  and  _53
REMARK   23  A    between atoms: _52  and  _55
REMARK   24  A    between atoms: _55  and  _56
REMARK   25  A    between atoms: _59  and  _61
REMARK   26  A    between atoms: _61  and  _62
REMARK   27  A    between atoms: _61  and  _64
REMARK   28  A    between atoms: _64  and  _65
REMARK   29  A    between atoms: _67  and  _69
REMARK   30  A    between atoms: _69  and  _70
REMARK   31  A    between atoms: _69  and  _72
REMARK   32  A    between atoms: _74  and  _76
REMARK   33  A    between atoms: _76  and  _77
REMARK   34  A    between atoms: _76  and  _79
REMARK   35  A    between atoms: _79  and  _80
REMARK   36  A    between atoms: _83  and  _85
REMARK   37  A    between atoms: _85  and  _86
REMARK   38  A    between atoms: _85  and  _88
REMARK   39  A    between atoms: _88  and  _89
REMARK   40  A    between atoms: _95  and  _97
REMARK   41  A    between atoms: _97  and  _98
REMARK   42  A    between atoms: _97  and  _100
REMARK   43  A    between atoms: _100  and  _101
REMARK   44  A    between atoms: _101  and  _102
REMARK   45  A    between atoms: _102  and  _103
REMARK   46  A    between atoms: _113  and  _114
REMARK   47  A    between atoms: _119  and  _121
REMARK   48  A    between atoms: _121  and  _122
REMARK   49  A    between atoms: _121  and  _124
REMARK   50  A    between atoms: _124  and  _125
REMARK   51  A    between atoms: _125  and  _126
REMARK   52  A    between atoms: _129  and  _131
REMARK   53  A    between atoms: _131  and  _132
REMARK   54  A    between atoms: _135  and  _137
REMARK   55  A    between atoms: _137  and  _138
REMARK   56  A    between atoms: _137  and  _140
REMARK   57  A    between atoms: _143  and  _145
REMARK   58  A    between atoms: _145  and  _146
REMARK   59  A    between atoms: _145  and  _148
REMARK   60  A    between atoms: _148  and  _149
REMARK   61  A    between atoms: _155  and  _157
REMARK   62  A    between atoms: _157  and  _158
REMARK   63  A    between atoms: _157  and  _160
REMARK   64  A    between atoms: _160  and  _161
REMARK   65  A    between atoms: _164  and  _166
REMARK   66  A    between atoms: _166  and  _167
REMARK   67  A    between atoms: _166  and  _169
REMARK   68  A    between atoms: _169  and  _170
REMARK   69  A    between atoms: _176  and  _178
REMARK   70  A    between atoms: _178  and  _179
REMARK   71  A    between atoms: _178  and  _181
REMARK   72  A    between atoms: _181  and  _182
REMARK   73  A    between atoms: _185  and  _187
REMARK   74  A    between atoms: _187  and  _188
REMARK   75  A    between atoms: _187  and  _190
REMARK   76  A    between atoms: _190  and  _191
REMARK   77  A    between atoms: _191  and  _192
REMARK   78  A    between atoms: _197  and  _199
REMARK   79  A    between atoms: _199  and  _200
REMARK   80  A    between atoms: _199  and  _202
REMARK   81  A    between atoms: _202  and  _203
REMARK   82  A    between atoms: _208  and  _210
REMARK   83  A    between atoms: _210  and  _211
REMARK   84  A    between atoms: _210  and  _213
REMARK   85  A    between atoms: _213  and  _214
REMARK   86  A    between atoms: _217  and  _219
REMARK   87  A    between atoms: _219  and  _220
REMARK   88  A    between atoms: _219  and  _222
REMARK   89  A    between atoms: _222  and  _223
REMARK   90  A    between atoms: _228  and  _230
REMARK   91  A    between atoms: _230  and  _231
REMARK   92  A    between atoms: _230  and  _233
REMARK   93  A    between atoms: _233  and  _234
REMARK   94  A    between atoms: _237  and  _239
REMARK   95  A    between atoms: _239  and  _240
REMARK   96  A    between atoms: _239  and  _242
REMARK   97  A    between atoms: _245  and  _247
REMARK   98  A    between atoms: _247  and  _248
REMARK   99  A    between atoms: _247  and  _250
REMARK  100  A    between atoms: _250  and  _251
REMARK  101  A    between atoms: _257  and  _259
REMARK  102  A    between atoms: _259  and  _260
REMARK  103  A    between atoms: _259  and  _262
REMARK  104  A    between atoms: _265  and  _267
REMARK  105  A    between atoms: _267  and  _268
REMARK  106  A    between atoms: _267  and  _270
REMARK  107  A    between atoms: _273  and  _275
REMARK  108  A    between atoms: _275  and  _276
REMARK  109  A    between atoms: _278  and  _280
REMARK  110  A    between atoms: _280  and  _281
REMARK  111  A    between atoms: _280  and  _283
REMARK  112  A    between atoms: _283  and  _284
REMARK  113  A    between atoms: _287  and  _289
REMARK  114  A    between atoms: _289  and  _290
REMARK  115  A    between atoms: _289  and  _292
REMARK  116  A    between atoms: _292  and  _293
REMARK  117  A    between atoms: _295  and  _297
REMARK  118  A    between atoms: _297  and  _298
REMARK  119  A    between atoms: _297  and  _300
REMARK  120  A    between atoms: _300  and  _301
REMARK  121  A    between atoms: _304  and  _306
REMARK  122  A    between atoms: _306  and  _307
REMARK  123  A    between atoms: _310  and  _312
REMARK  124  A    between atoms: _312  and  _313
REMARK  125  A    between atoms: _312  and  _315
REMARK  126  A    between atoms: _318  and  _320
REMARK  127  A    between atoms: _320  and  _321
REMARK  128  A    between atoms: _320  and  _323
REMARK  129  A    between atoms: _323  and  _324
REMARK  130  A    between atoms: _329  and  _330
REMARK  131  A    between atoms: _332  and  _334
REMARK  132  A    between atoms: _334  and  _335
REMARK  133  A    between atoms: _334  and  _337
REMARK  134  A    between atoms: _337  and  _338
REMARK  135  A    between atoms: _344  and  _346
REMARK  136  A    between atoms: _346  and  _347
REMARK  137  A    between atoms: _346  and  _349
REMARK  138  A    between atoms: _349  and  _350
REMARK  139  A    between atoms: _353  and  _355
REMARK  140  A    between atoms: _355  and  _356
REMARK  141  A    between atoms: _355  and  _358
REMARK  142  A    between atoms: _360  and  _362
REMARK  143  A    between atoms: _362  and  _363
REMARK  144  A    between atoms: _362  and  _365
REMARK  145  A    between atoms: _365  and  _366
REMARK  146  A    between atoms: _371  and  _373
REMARK  147  A    between atoms: _373  and  _374
REMARK  148  A    between atoms: _373  and  _376
REMARK  149  A    between atoms: _376  and  _377
REMARK  150  A    between atoms: _380  and  _382
REMARK  151  A    between atoms: _382  and  _383
REMARK  152  A    between atoms: _382  and  _385
REMARK  153  A    between atoms: _385  and  _386
REMARK  154  A    between atoms: _386  and  _387
REMARK  155  A    between atoms: _390  and  _392
REMARK  156  A    between atoms: _392  and  _393
REMARK  157  A    between atoms: _392  and  _395
REMARK  158  A    between atoms: _395  and  _396
REMARK  159  A    between atoms: _399  and  _401
REMARK  160  A    between atoms: _401  and  _402
REMARK  161  A    between atoms: _401  and  _404
REMARK  162  A    between atoms: _407  and  _409
REMARK  163  A    between atoms: _409  and  _410
REMARK  164  A    between atoms: _412  and  _414
REMARK  165  A    between atoms: _414  and  _415
REMARK  166  A    between atoms: _414  and  _417
REMARK  167  A    between atoms: _420  and  _422
REMARK  168  A    between atoms: _422  and  _423
REMARK  169  A    between atoms: _422  and  _425
REMARK  170  A    between atoms: _425  and  _426
REMARK  171  A    between atoms: _431  and  _433
REMARK  172  A    between atoms: _433  and  _434
REMARK  173  A    between atoms: _433  and  _436
REMARK  174  A    between atoms: _436  and  _437
REMARK  175  A    between atoms: _437  and  _438
REMARK  176  A    between atoms: _443  and  _445
REMARK  177  A    between atoms: _445  and  _446
REMARK  178  A    between atoms: _445  and  _448
REMARK  179  A    between atoms: _448  and  _449
REMARK  180  A    between atoms: _454  and  _455
REMARK  181  A    between atoms: _457  and  _459
REMARK  182  A    between atoms: _459  and  _460
REMARK  183  A    between atoms: _459  and  _462
REMARK  184  A    between atoms: _462  and  _463
REMARK  185  A    between atoms: _465  and  _467
REMARK  186  A    between atoms: _467  and  _468
REMARK  187  A    between atoms: _467  and  _470
REMARK  188  A    between atoms: _470  and  _471
REMARK  189  A    between atoms: _474  and  _476
REMARK  190  A    between atoms: _476  and  _477
REMARK  191  A    between atoms: _476  and  _479
REMARK  192  A    between atoms: _479  and  _480
REMARK  193  A    between atoms: _480  and  _481
REMARK  194  A    between atoms: _484  and  _486
REMARK  195  A    between atoms: _486  and  _487
REMARK  196  A    between atoms: _486  and  _489
REMARK  197  A    between atoms: _489  and  _490
REMARK  198  A    between atoms: _496  and  _498
REMARK  199  A    between atoms: _498  and  _499
REMARK                            x       y       z     vdW  Elec       q    Type
REMARK                         _______ _______ _______ _____ _____    ______ ____
ROOT
ATOM      1  O   HOH     1      -7.745  32.133 -55.346  0.00  0.00    +0.000 OA
ENDROOT
TORSDOF 0
REMARK  Name = ../refined-set-2016/1szd/1szd_pocket.pdb
REMARK  199 active torsions:
REMARK  status: ('A' for Active; 'I' for Inactive)
REMARK    1  A    between atoms: _1  and  _3
REMARK    2  A    between atoms: _3  and  _4
REMARK    3  A    between atoms: _3  and  _6
REMARK    4  A    between atoms: _9  and  _11
REMARK    5  A    between atoms: _11  and  _12
REMARK    6  A    between atoms: _11  and  _14
REMARK    7  A    between atoms: _17  and  _19
REMARK    8  A    between atoms: _19  and  _20
REMARK    9  A    between atoms: _22  and  _24
REMARK   10  A    between atoms: _24  and  _25
REMARK   11  A    between atoms: _28  and  _30
REMARK   12  A    between atoms: _30  and  _31
REMARK   13  A    between atoms: _33  and  _35
REMARK   14  A    between atoms: _35  and  _36
REMARK   15  A    between atoms: _35  and  _38
REMARK   16  A    between atoms: _38  and  _39
REMARK   17  A    between atoms: _42  and  _44
REMARK   18  A    between atoms: _44  and  _45
REMARK   19  A    between atoms: _44  and  _47
REMARK   20  A    between atoms: _47  and  _48
REMARK   21  A    between atoms: _50  and  _52
REMARK   22  A    between atoms: _52  and  _53
REMARK   23  A    between atoms: _52  and  _55
REMARK   24  A    between atoms: _55  and  _56
REMARK   25  A    between atoms: _59  and  _61
REMARK   26  A    between atoms: _61  and  _62
REMARK   27  A    between atoms: _61  and  _64
REMARK   28  A    between atoms: _64  and  _65
REMARK   29  A    between atoms: _67  and  _69
REMARK   30  A    between atoms: _69  and  _70
REMARK   31  A    between atoms: _69  and  _72
REMARK   32  A    between atoms: _74  and  _76
REMARK   33  A    between atoms: _76  and  _77
REMARK   34  A    between atoms: _76  and  _79
REMARK   35  A    between atoms: _79  and  _80
REMARK   36  A    between atoms: _83  and  _85
REMARK   37  A    between atoms: _85  and  _86
REMARK   38  A    between atoms: _85  and  _88
REMARK   39  A    between atoms: _88  and  _89
REMARK   40  A    between atoms: _95  and  _97
REMARK   41  A    between atoms: _97  and  _98
REMARK   42  A    between atoms: _97  and  _100
REMARK   43  A    between atoms: _100  and  _101
REMARK   44  A    between atoms: _101  and  _102
REMARK   45  A    between atoms: _102  and  _103
REMARK   46  A    between atoms: _113  and  _114
REMARK   47  A    between atoms: _119  and  _121
REMARK   48  A    between atoms: _121  and  _122
REMARK   49  A    between atoms: _121  and  _124
REMARK   50  A    between atoms: _124  and  _125
REMARK   51  A    between atoms: _125  and  _126
REMARK   52  A    between atoms: _129  and  _131
REMARK   53  A    between atoms: _131  and  _132
REMARK   54  A    between atoms: _135  and  _137
REMARK   55  A    between atoms: _137  and  _138
REMARK   56  A    between atoms: _137  and  _140
REMARK   57  A    between atoms: _143  and  _145
REMARK   58  A    between atoms: _145  and  _146
REMARK   59  A    between atoms: _145  and  _148
REMARK   60  A    between atoms: _148  and  _149
REMARK   61  A    between atoms: _155  and  _157
REMARK   62  A    between atoms: _157  and  _158
REMARK   63  A    between atoms: _157  and  _160
REMARK   64  A    between atoms: _160  and  _161
REMARK   65  A    between atoms: _164  and  _166
REMARK   66  A    between atoms: _166  and  _167
REMARK   67  A    between atoms: _166  and  _169
REMARK   68  A    between atoms: _169  and  _170
REMARK   69  A    between atoms: _176  and  _178
REMARK   70  A    between atoms: _178  and  _179
REMARK   71  A    between atoms: _178  and  _181
REMARK   72  A    between atoms: _181  and  _182
REMARK   73  A    between atoms: _185  and  _187
REMARK   74  A    between atoms: _187  and  _188
REMARK   75  A    between atoms: _187  and  _190
REMARK   76  A    between atoms: _190  and  _191
REMARK   77  A    between atoms: _191  and  _192
REMARK   78  A    between atoms: _197  and  _199
REMARK   79  A    between atoms: _199  and  _200
REMARK   80  A    between atoms: _199  and  _202
REMARK   81  A    between atoms: _202  and  _203
REMARK   82  A    between atoms: _208  and  _210
REMARK   83  A    between atoms: _210  and  _211
REMARK   84  A    between atoms: _210  and  _213
REMARK   85  A    between atoms: _213  and  _214
REMARK   86  A    between atoms: _217  and  _219
REMARK   87  A    between atoms: _219  and  _220
REMARK   88  A    between atoms: _219  and  _222
REMARK   89  A    between atoms: _222  and  _223
REMARK   90  A    between atoms: _228  and  _230
REMARK   91  A    between atoms: _230  and  _231
REMARK   92  A    between atoms: _230  and  _233
REMARK   93  A    between atoms: _233  and  _234
REMARK   94  A    between atoms: _237  and  _239
REMARK   95  A    between atoms: _239  and  _240
REMARK   96  A    between atoms: _239  and  _242
REMARK   97  A    between atoms: _245  and  _247
REMARK   98  A    between atoms: _247  and  _248
REMARK   99  A    between atoms: _247  and  _250
REMARK  100  A    between atoms: _250  and  _251
REMARK  101  A    between atoms: _257  and  _259
REMARK  102  A    between atoms: _259  and  _260
REMARK  103  A    between atoms: _259  and  _262
REMARK  104  A    between atoms: _265  and  _267
REMARK  105  A    between atoms: _267  and  _268
REMARK  106  A    between atoms: _267  and  _270
REMARK  107  A    between atoms: _273  and  _275
REMARK  108  A    between atoms: _275  and  _276
REMARK  109  A    between atoms: _278  and  _280
REMARK  110  A    between atoms: _280  and  _281
REMARK  111  A    between atoms: _280  and  _283
REMARK  112  A    between atoms: _283  and  _284
REMARK  113  A    between atoms: _287  and  _289
REMARK  114  A    between atoms: _289  and  _290
REMARK  115  A    between atoms: _289  and  _292
REMARK  116  A    between atoms: _292  and  _293
REMARK  117  A    between atoms: _295  and  _297
REMARK  118  A    between atoms: _297  and  _298
REMARK  119  A    between atoms: _297  and  _300
REMARK  120  A    between atoms: _300  and  _301
REMARK  121  A    between atoms: _304  and  _306
REMARK  122  A    between atoms: _306  and  _307
REMARK  123  A    between atoms: _310  and  _312
REMARK  124  A    between atoms: _312  and  _313
REMARK  125  A    between atoms: _312  and  _315
REMARK  126  A    between atoms: _318  and  _320
REMARK  127  A    between atoms: _320  and  _321
REMARK  128  A    between atoms: _320  and  _323
REMARK  129  A    between atoms: _323  and  _324
REMARK  130  A    between atoms: _329  and  _330
REMARK  131  A    between atoms: _332  and  _334
REMARK  132  A    between atoms: _334  and  _335
REMARK  133  A    between atoms: _334  and  _337
REMARK  134  A    between atoms: _337  and  _338
REMARK  135  A    between atoms: _344  and  _346
REMARK  136  A    between atoms: _346  and  _347
REMARK  137  A    between atoms: _346  and  _349
REMARK  138  A    between atoms: _349  and  _350
REMARK  139  A    between atoms: _353  and  _355
REMARK  140  A    between atoms: _355  and  _356
REMARK  141  A    between atoms: _355  and  _358
REMARK  142  A    between atoms: _360  and  _362
REMARK  143  A    between atoms: _362  and  _363
REMARK  144  A    between atoms: _362  and  _365
REMARK  145  A    between atoms: _365  and  _366
REMARK  146  A    between atoms: _371  and  _373
REMARK  147  A    between atoms: _373  and  _374
REMARK  148  A    between atoms: _373  and  _376
REMARK  149  A    between atoms: _376  and  _377
REMARK  150  A    between atoms: _380  and  _382
REMARK  151  A    between atoms: _382  and  _383
REMARK  152  A    between atoms: _382  and  _385
REMARK  153  A    between atoms: _385  and  _386
REMARK  154  A    between atoms: _386  and  _387
REMARK  155  A    between atoms: _390  and  _392
REMARK  156  A    between atoms: _392  and  _393
REMARK  157  A    between atoms: _392  and  _395
REMARK  158  A    between atoms: _395  and  _396
REMARK  159  A    between atoms: _399  and  _401
REMARK  160  A    between atoms: _401  and  _402
REMARK  161  A    between atoms: _401  and  _404
REMARK  162  A    between atoms: _407  and  _409
REMARK  163  A    between atoms: _409  and  _410
REMARK  164  A    between atoms: _412  and  _414
REMARK  165  A    between atoms: _414  and  _415
REMARK  166  A    between atoms: _414  and  _417
REMARK  167  A    between atoms: _420  and  _422
REMARK  168  A    between atoms: _422  and  _423
REMARK  169  A    between atoms: _422  and  _425
REMARK  170  A    between atoms: _425  and  _426
REMARK  171  A    between atoms: _431  and  _433
REMARK  172  A    between atoms: _433  and  _434
REMARK  173  A    between atoms: _433  and  _436
REMARK  174  A    between atoms: _436  and  _437
REMARK  175  A    between atoms: _437  and  _438
REMARK  176  A    between atoms: _443  and  _445
REMARK  177  A    between atoms: _445  and  _446
REMARK  178  A    between atoms: _445  and  _448
REMARK  179  A    between atoms: _448  and  _449
REMARK  180  A    between atoms: _454  and  _455
REMARK  181  A    between atoms: _457  and  _459
REMARK  182  A    between atoms: _459  and  _460
REMARK  183  A    between atoms: _459  and  _462
REMARK  184  A    between atoms: _462  and  _463
REMARK  185  A    between atoms: _465  and  _467
REMARK  186  A    between atoms: _467  and  _468
REMARK  187  A    between atoms: _467  and  _470
REMARK  188  A    between atoms: _470  and  _471
REMARK  189  A    between atoms: _474  and  _476
REMARK  190  A    between atoms: _476  and  _477
REMARK  191  A    between atoms: _476  and  _479
REMARK  192  A    between atoms: _479  and  _480
REMARK  193  A    between atoms: _480  and  _481
REMARK  194  A    between atoms: _484  and  _486
REMARK  195  A    between atoms: _486  and  _487
REMARK  196  A    between atoms: _486  and  _489
REMARK  197  A    between atoms: _489  and  _490
REMARK  198  A    between atoms: _496  and  _498
REMARK  199  A    between atoms: _498  and  _499
REMARK                            x       y       z     vdW  Elec       q    Type
REMARK                         _______ _______ _______ _____ _____    ______ ____
ROOT
ATOM      1  O   HOH     1     -14.612  39.070 -42.646  0.00  0.00    +0.000 OA
ENDROOT
TORSDOF 0
REMARK  Name = ../refined-set-2016/1szd/1szd_pocket.pdb
REMARK  199 active torsions:
REMARK  status: ('A' for Active; 'I' for Inactive)
REMARK    1  A    between atoms: _1  and  _3
REMARK    2  A    between atoms: _3  and  _4
REMARK    3  A    between atoms: _3  and  _6
REMARK    4  A    between atoms: _9  and  _11
REMARK    5  A    between atoms: _11  and  _12
REMARK    6  A    between atoms: _11  and  _14
REMARK    7  A    between atoms: _17  and  _19
REMARK    8  A    between atoms: _19  and  _20
REMARK    9  A    between atoms: _22  and  _24
REMARK   10  A    between atoms: _24  and  _25
REMARK   11  A    between atoms: _28  and  _30
REMARK   12  A    between atoms: _30  and  _31
REMARK   13  A    between atoms: _33  and  _35
REMARK   14  A    between atoms: _35  and  _36
REMARK   15  A    between atoms: _35  and  _38
REMARK   16  A    between atoms: _38  and  _39
REMARK   17  A    between atoms: _42  and  _44
REMARK   18  A    between atoms: _44  and  _45
REMARK   19  A    between atoms: _44  and  _47
REMARK   20  A    between atoms: _47  and  _48
REMARK   21  A    between atoms: _50  and  _52
REMARK   22  A    between atoms: _52  and  _53
REMARK   23  A    between atoms: _52  and  _55
REMARK   24  A    between atoms: _55  and  _56
REMARK   25  A    between atoms: _59  and  _61
REMARK   26  A    between atoms: _61  and  _62
REMARK   27  A    between atoms: _61  and  _64
REMARK   28  A    between atoms: _64  and  _65
REMARK   29  A    between atoms: _67  and  _69
REMARK   30  A    between atoms: _69  and  _70
REMARK   31  A    between atoms: _69  and  _72
REMARK   32  A    between atoms: _74  and  _76
REMARK   33  A    between atoms: _76  and  _77
REMARK   34  A    between atoms: _76  and  _79
REMARK   35  A    between atoms: _79  and  _80
REMARK   36  A    between atoms: _83  and  _85
REMARK   37  A    between atoms: _85  and  _86
REMARK   38  A    between atoms: _85  and  _88
REMARK   39  A    between atoms: _88  and  _89
REMARK   40  A    between atoms: _95  and  _97
REMARK   41  A    between atoms: _97  and  _98
REMARK   42  A    between atoms: _97  and  _100
REMARK   43  A    between atoms: _100  and  _101
REMARK   44  A    between atoms: _101  and  _102
REMARK   45  A    between atoms: _102  and  _103
REMARK   46  A    between atoms: _113  and  _114
REMARK   47  A    between atoms: _119  and  _121
REMARK   48  A    between atoms: _121  and  _122
REMARK   49  A    between atoms: _121  and  _124
REMARK   50  A    between atoms: _124  and  _125
REMARK   51  A    between atoms: _125  and  _126
REMARK   52  A    between atoms: _129  and  _131
REMARK   53  A    between atoms: _131  and  _132
REMARK   54  A    between atoms: _135  and  _137
REMARK   55  A    between atoms: _137  and  _138
REMARK   56  A    between atoms: _137  and  _140
REMARK   57  A    between atoms: _143  and  _145
REMARK   58  A    between atoms: _145  and  _146
REMARK   59  A    between atoms: _145  and  _148
REMARK   60  A    between atoms: _148  and  _149
REMARK   61  A    between atoms: _155  and  _157
REMARK   62  A    between atoms: _157  and  _158
REMARK   63  A    between atoms: _157  and  _160
REMARK   64  A    between atoms: _160  and  _161
REMARK   65  A    between atoms: _164  and  _166
REMARK   66  A    between atoms: _166  and  _167
REMARK   67  A    between atoms: _166  and  _169
REMARK   68  A    between atoms: _169  and  _170
REMARK   69  A    between atoms: _176  and  _178
REMARK   70  A    between atoms: _178  and  _179
REMARK   71  A    between atoms: _178  and  _181
REMARK   72  A    between atoms: _181  and  _182
REMARK   73  A    between atoms: _185  and  _187
REMARK   74  A    between atoms: _187  and  _188
REMARK   75  A    between atoms: _187  and  _190
REMARK   76  A    between atoms: _190  and  _191
REMARK   77  A    between atoms: _191  and  _192
REMARK   78  A    between atoms: _197  and  _199
REMARK   79  A    between atoms: _199  and  _200
REMARK   80  A    between atoms: _199  and  _202
REMARK   81  A    between atoms: _202  and  _203
REMARK   82  A    between atoms: _208  and  _210
REMARK   83  A    between atoms: _210  and  _211
REMARK   84  A    between atoms: _210  and  _213
REMARK   85  A    between atoms: _213  and  _214
REMARK   86  A    between atoms: _217  and  _219
REMARK   87  A    between atoms: _219  and  _220
REMARK   88  A    between atoms: _219  and  _222
REMARK   89  A    between atoms: _222  and  _223
REMARK   90  A    between atoms: _228  and  _230
REMARK   91  A    between atoms: _230  and  _231
REMARK   92  A    between atoms: _230  and  _233
REMARK   93  A    between atoms: _233  and  _234
REMARK   94  A    between atoms: _237  and  _239
REMARK   95  A    between atoms: _239  and  _240
REMARK   96  A    between atoms: _239  and  _242
REMARK   97  A    between atoms: _245  and  _247
REMARK   98  A    between atoms: _247  and  _248
REMARK   99  A    between atoms: _247  and  _250
REMARK  100  A    between atoms: _250  and  _251
REMARK  101  A    between atoms: _257  and  _259
REMARK  102  A    between atoms: _259  and  _260
REMARK  103  A    between atoms: _259  and  _262
REMARK  104  A    between atoms: _265  and  _267
REMARK  105  A    between atoms: _267  and  _268
REMARK  106  A    between atoms: _267  and  _270
REMARK  107  A    between atoms: _273  and  _275
REMARK  108  A    between atoms: _275  and  _276
REMARK  109  A    between atoms: _278  and  _280
REMARK  110  A    between atoms: _280  and  _281
REMARK  111  A    between atoms: _280  and  _283
REMARK  112  A    between atoms: _283  and  _284
REMARK  113  A    between atoms: _287  and  _289
REMARK  114  A    between atoms: _289  and  _290
REMARK  115  A    between atoms: _289  and  _292
REMARK  116  A    between atoms: _292  and  _293
REMARK  117  A    between atoms: _295  and  _297
REMARK  118  A    between atoms: _297  and  _298
REMARK  119  A    between atoms: _297  and  _300
REMARK  120  A    between atoms: _300  and  _301
REMARK  121  A    between atoms: _304  and  _306
REMARK  122  A    between atoms: _306  and  _307
REMARK  123  A    between atoms: _310  and  _312
REMARK  124  A    between atoms: _312  and  _313
REMARK  125  A    between atoms: _312  and  _315
REMARK  126  A    between atoms: _318  and  _320
REMARK  127  A    between atoms: _320  and  _321
REMARK  128  A    between atoms: _320  and  _323
REMARK  129  A    between atoms: _323  and  _324
REMARK  130  A    between atoms: _329  and  _330
REMARK  131  A    between atoms: _332  and  _334
REMARK  132  A    between atoms: _334  and  _335
REMARK  133  A    between atoms: _334  and  _337
REMARK  134  A    between atoms: _337  and  _338
REMARK  135  A    between atoms: _344  and  _346
REMARK  136  A    between atoms: _346  and  _347
REMARK  137  A    between atoms: _346  and  _349
REMARK  138  A    between atoms: _349  and  _350
REMARK  139  A    between atoms: _353  and  _355
REMARK  140  A    between atoms: _355  and  _356
REMARK  141  A    between atoms: _355  and  _358
REMARK  142  A    between atoms: _360  and  _362
REMARK  143  A    between atoms: _362  and  _363
REMARK  144  A    between atoms: _362  and  _365
REMARK  145  A    between atoms: _365  and  _366
REMARK  146  A    between atoms: _371  and  _373
REMARK  147  A    between atoms: _373  and  _374
REMARK  148  A    between atoms: _373  and  _376
REMARK  149  A    between atoms: _376  and  _377
REMARK  150  A    between atoms: _380  and  _382
REMARK  151  A    between atoms: _382  and  _383
REMARK  152  A    between atoms: _382  and  _385
REMARK  153  A    between atoms: _385  and  _386
REMARK  154  A    between atoms: _386  and  _387
REMARK  155  A    between atoms: _390  and  _392
REMARK  156  A    between atoms: _392  and  _393
REMARK  157  A    between atoms: _392  and  _395
REMARK  158  A    between atoms: _395  and  _396
REMARK  159  A    between atoms: _399  and  _401
REMARK  160  A    between atoms: _401  and  _402
REMARK  161  A    between atoms: _401  and  _404
REMARK  162  A    between atoms: _407  and  _409
REMARK  163  A    between atoms: _409  and  _410
REMARK  164  A    between atoms: _412  and  _414
REMARK  165  A    between atoms: _414  and  _415
REMARK  166  A    between atoms: _414  and  _417
REMARK  167  A    between atoms: _420  and  _422
REMARK  168  A    between atoms: _422  and  _423
REMARK  169  A    between atoms: _422  and  _425
REMARK  170  A    between atoms: _425  and  _426
REMARK  171  A    between atoms: _431  and  _433
REMARK  172  A    between atoms: _433  and  _434
REMARK  173  A    between atoms: _433  and  _436
REMARK  174  A    between atoms: _436  and  _437
REMARK  175  A    between atoms: _437  and  _438
REMARK  176  A    between atoms: _443  and  _445
REMARK  177  A    between atoms: _445  and  _446
REMARK  178  A    between atoms: _445  and  _448
REMARK  179  A    between atoms: _448  and  _449
REMARK  180  A    between atoms: _454  and  _455
REMARK  181  A    between atoms: _457  and  _459
REMARK  182  A    between atoms: _459  and  _460
REMARK  183  A    between atoms: _459  and  _462
REMARK  184  A    between atoms: _462  and  _463
REMARK  185  A    between atoms: _465  and  _467
REMARK  186  A    between atoms: _467  and  _468
REMARK  187  A    between atoms: _467  and  _470
REMARK  188  A    between atoms: _470  and  _471
REMARK  189  A    between atoms: _474  and  _476
REMARK  190  A    between atoms: _476  and  _477
REMARK  191  A    between atoms: _476  and  _479
REMARK  192  A    between atoms: _479  and  _480
REMARK  193  A    between atoms: _480  and  _481
REMARK  194  A    between atoms: _484  and  _486
REMARK  195  A    between atoms: _486  and  _487
REMARK  196  A    between atoms: _486  and  _489
REMARK  197  A    between atoms: _489  and  _490
REMARK  198  A    between atoms: _496  and  _498
REMARK  199  A    between atoms: _498  and  _499
REMARK                            x       y       z     vdW  Elec       q    Type
REMARK                         _______ _______ _______ _____ _____    ______ ____
ROOT
ATOM      1  O   HOH     1     -14.194  32.802 -47.230  0.00  0.00    +0.000 OA
ENDROOT
TORSDOF 0
REMARK  Name = ../refined-set-2016/1szd/1szd_pocket.pdb
REMARK  199 active torsions:
REMARK  status: ('A' for Active; 'I' for Inactive)
REMARK    1  A    between atoms: _1  and  _3
REMARK    2  A    between atoms: _3  and  _4
REMARK    3  A    between atoms: _3  and  _6
REMARK    4  A    between atoms: _9  and  _11
REMARK    5  A    between atoms: _11  and  _12
REMARK    6  A    between atoms: _11  and  _14
REMARK    7  A    between atoms: _17  and  _19
REMARK    8  A    between atoms: _19  and  _20
REMARK    9  A    between atoms: _22  and  _24
REMARK   10  A    between atoms: _24  and  _25
REMARK   11  A    between atoms: _28  and  _30
REMARK   12  A    between atoms: _30  and  _31
REMARK   13  A    between atoms: _33  and  _35
REMARK   14  A    between atoms: _35  and  _36
REMARK   15  A    between atoms: _35  and  _38
REMARK   16  A    between atoms: _38  and  _39
REMARK   17  A    between atoms: _42  and  _44
REMARK   18  A    between atoms: _44  and  _45
REMARK   19  A    between atoms: _44  and  _47
REMARK   20  A    between atoms: _47  and  _48
REMARK   21  A    between atoms: _50  and  _52
REMARK   22  A    between atoms: _52  and  _53
REMARK   23  A    between atoms: _52  and  _55
REMARK   24  A    between atoms: _55  and  _56
REMARK   25  A    between atoms: _59  and  _61
REMARK   26  A    between atoms: _61  and  _62
REMARK   27  A    between atoms: _61  and  _64
REMARK   28  A    between atoms: _64  and  _65
REMARK   29  A    between atoms: _67  and  _69
REMARK   30  A    between atoms: _69  and  _70
REMARK   31  A    between atoms: _69  and  _72
REMARK   32  A    between atoms: _74  and  _76
REMARK   33  A    between atoms: _76  and  _77
REMARK   34  A    between atoms: _76  and  _79
REMARK   35  A    between atoms: _79  and  _80
REMARK   36  A    between atoms: _83  and  _85
REMARK   37  A    between atoms: _85  and  _86
REMARK   38  A    between atoms: _85  and  _88
REMARK   39  A    between atoms: _88  and  _89
REMARK   40  A    between atoms: _95  and  _97
REMARK   41  A    between atoms: _97  and  _98
REMARK   42  A    between atoms: _97  and  _100
REMARK   43  A    between atoms: _100  and  _101
REMARK   44  A    between atoms: _101  and  _102
REMARK   45  A    between atoms: _102  and  _103
REMARK   46  A    between atoms: _113  and  _114
REMARK   47  A    between atoms: _119  and  _121
REMARK   48  A    between atoms: _121  and  _122
REMARK   49  A    between atoms: _121  and  _124
REMARK   50  A    between atoms: _124  and  _125
REMARK   51  A    between atoms: _125  and  _126
REMARK   52  A    between atoms: _129  and  _131
REMARK   53  A    between atoms: _131  and  _132
REMARK   54  A    between atoms: _135  and  _137
REMARK   55  A    between atoms: _137  and  _138
REMARK   56  A    between atoms: _137  and  _140
REMARK   57  A    between atoms: _143  and  _145
REMARK   58  A    between atoms: _145  and  _146
REMARK   59  A    between atoms: _145  and  _148
REMARK   60  A    between atoms: _148  and  _149
REMARK   61  A    between atoms: _155  and  _157
REMARK   62  A    between atoms: _157  and  _158
REMARK   63  A    between atoms: _157  and  _160
REMARK   64  A    between atoms: _160  and  _161
REMARK   65  A    between atoms: _164  and  _166
REMARK   66  A    between atoms: _166  and  _167
REMARK   67  A    between atoms: _166  and  _169
REMARK   68  A    between atoms: _169  and  _170
REMARK   69  A    between atoms: _176  and  _178
REMARK   70  A    between atoms: _178  and  _179
REMARK   71  A    between atoms: _178  and  _181
REMARK   72  A    between atoms: _181  and  _182
REMARK   73  A    between atoms: _185  and  _187
REMARK   74  A    between atoms: _187  and  _188
REMARK   75  A    between atoms: _187  and  _190
REMARK   76  A    between atoms: _190  and  _191
REMARK   77  A    between atoms: _191  and  _192
REMARK   78  A    between atoms: _197  and  _199
REMARK   79  A    between atoms: _199  and  _200
REMARK   80  A    between atoms: _199  and  _202
REMARK   81  A    between atoms: _202  and  _203
REMARK   82  A    between atoms: _208  and  _210
REMARK   83  A    between atoms: _210  and  _211
REMARK   84  A    between atoms: _210  and  _213
REMARK   85  A    between atoms: _213  and  _214
REMARK   86  A    between atoms: _217  and  _219
REMARK   87  A    between atoms: _219  and  _220
REMARK   88  A    between atoms: _219  and  _222
REMARK   89  A    between atoms: _222  and  _223
REMARK   90  A    between atoms: _228  and  _230
REMARK   91  A    between atoms: _230  and  _231
REMARK   92  A    between atoms: _230  and  _233
REMARK   93  A    between atoms: _233  and  _234
REMARK   94  A    between atoms: _237  and  _239
REMARK   95  A    between atoms: _239  and  _240
REMARK   96  A    between atoms: _239  and  _242
REMARK   97  A    between atoms: _245  and  _247
REMARK   98  A    between atoms: _247  and  _248
REMARK   99  A    between atoms: _247  and  _250
REMARK  100  A    between atoms: _250  and  _251
REMARK  101  A    between atoms: _257  and  _259
REMARK  102  A    between atoms: _259  and  _260
REMARK  103  A    between atoms: _259  and  _262
REMARK  104  A    between atoms: _265  and  _267
REMARK  105  A    between atoms: _267  and  _268
REMARK  106  A    between atoms: _267  and  _270
REMARK  107  A    between atoms: _273  and  _275
REMARK  108  A    between atoms: _275  and  _276
REMARK  109  A    between atoms: _278  and  _280
REMARK  110  A    between atoms: _280  and  _281
REMARK  111  A    between atoms: _280  and  _283
REMARK  112  A    between atoms: _283  and  _284
REMARK  113  A    between atoms: _287  and  _289
REMARK  114  A    between atoms: _289  and  _290
REMARK  115  A    between atoms: _289  and  _292
REMARK  116  A    between atoms: _292  and  _293
REMARK  117  A    between atoms: _295  and  _297
REMARK  118  A    between atoms: _297  and  _298
REMARK  119  A    between atoms: _297  and  _300
REMARK  120  A    between atoms: _300  and  _301
REMARK  121  A    between atoms: _304  and  _306
REMARK  122  A    between atoms: _306  and  _307
REMARK  123  A    between atoms: _310  and  _312
REMARK  124  A    between atoms: _312  and  _313
REMARK  125  A    between atoms: _312  and  _315
REMARK  126  A    between atoms: _318  and  _320
REMARK  127  A    between atoms: _320  and  _321
REMARK  128  A    between atoms: _320  and  _323
REMARK  129  A    between atoms: _323  and  _324
REMARK  130  A    between atoms: _329  and  _330
REMARK  131  A    between atoms: _332  and  _334
REMARK  132  A    between atoms: _334  and  _335
REMARK  133  A    between atoms: _334  and  _337
REMARK  134  A    between atoms: _337  and  _338
REMARK  135  A    between atoms: _344  and  _346
REMARK  136  A    between atoms: _346  and  _347
REMARK  137  A    between atoms: _346  and  _349
REMARK  138  A    between atoms: _349  and  _350
REMARK  139  A    between atoms: _353  and  _355
REMARK  140  A    between atoms: _355  and  _356
REMARK  141  A    between atoms: _355  and  _358
REMARK  142  A    between atoms: _360  and  _362
REMARK  143  A    between atoms: _362  and  _363
REMARK  144  A    between atoms: _362  and  _365
REMARK  145  A    between atoms: _365  and  _366
REMARK  146  A    between atoms: _371  and  _373
REMARK  147  A    between atoms: _373  and  _374
REMARK  148  A    between atoms: _373  and  _376
REMARK  149  A    between atoms: _376  and  _377
REMARK  150  A    between atoms: _380  and  _382
REMARK  151  A    between atoms: _382  and  _383
REMARK  152  A    between atoms: _382  and  _385
REMARK  153  A    between atoms: _385  and  _386
REMARK  154  A    between atoms: _386  and  _387
REMARK  155  A    between atoms: _390  and  _392
REMARK  156  A    between atoms: _392  and  _393
REMARK  157  A    between atoms: _392  and  _395
REMARK  158  A    between atoms: _395  and  _396
REMARK  159  A    between atoms: _399  and  _401
REMARK  160  A    between atoms: _401  and  _402
REMARK  161  A    between atoms: _401  and  _404
REMARK  162  A    between atoms: _407  and  _409
REMARK  163  A    between atoms: _409  and  _410
REMARK  164  A    between atoms: _412  and  _414
REMARK  165  A    between atoms: _414  and  _415
REMARK  166  A    between atoms: _414  and  _417
REMARK  167  A    between atoms: _420  and  _422
REMARK  168  A    between atoms: _422  and  _423
REMARK  169  A    between atoms: _422  and  _425
REMARK  170  A    between atoms: _425  and  _426
REMARK  171  A    between atoms: _431  and  _433
REMARK  172  A    between atoms: _433  and  _434
REMARK  173  A    between atoms: _433  and  _436
REMARK  174  A    between atoms: _436  and  _437
REMARK  175  A    between atoms: _437  and  _438
REMARK  176  A    between atoms: _443  and  _445
REMARK  177  A    between atoms: _445  and  _446
REMARK  178  A    between atoms: _445  and  _448
REMARK  179  A    between atoms: _448  and  _449
REMARK  180  A    between atoms: _454  and  _455
REMARK  181  A    between atoms: _457  and  _459
REMARK  182  A    between atoms: _459  and  _460
REMARK  183  A    between atoms: _459  and  _462
REMARK  184  A    between atoms: _462  and  _463
REMARK  185  A    between atoms: _465  and  _467
REMARK  186  A    between atoms: _467  and  _468
REMARK  187  A    between atoms: _467  and  _470
REMARK  188  A    between atoms: _470  and  _471
REMARK  189  A    between atoms: _474  and  _476
REMARK  190  A    between atoms: _476  and  _477
REMARK  191  A    between atoms: _476  and  _479
REMARK  192  A    between atoms: _479  and  _480
REMARK  193  A    between atoms: _480  and  _481
REMARK  194  A    between atoms: _484  and  _486
REMARK  195  A    between atoms: _486  and  _487
REMARK  196  A    between atoms: _486  and  _489
REMARK  197  A    between atoms: _489  and  _490
REMARK  198  A    between atoms: _496  and  _498
REMARK  199  A    between atoms: _498  and  _499
REMARK                            x       y       z     vdW  Elec       q    Type
REMARK                         _______ _______ _______ _____ _____    ______ ____
ROOT
ATOM      1  O   HOH     1     -13.827  21.596 -36.304  0.00  0.00    +0.000 OA
ENDROOT
TORSDOF 0
REMARK  Name = ../refined-set-2016/1szd/1szd_pocket.pdb
REMARK  199 active torsions:
REMARK  status: ('A' for Active; 'I' for Inactive)
REMARK    1  A    between atoms: _1  and  _3
REMARK    2  A    between atoms: _3  and  _4
REMARK    3  A    between atoms: _3  and  _6
REMARK    4  A    between atoms: _9  and  _11
REMARK    5  A    between atoms: _11  and  _12
REMARK    6  A    between atoms: _11  and  _14
REMARK    7  A    between atoms: _17  and  _19
REMARK    8  A    between atoms: _19  and  _20
REMARK    9  A    between atoms: _22  and  _24
REMARK   10  A    between atoms: _24  and  _25
REMARK   11  A    between atoms: _28  and  _30
REMARK   12  A    between atoms: _30  and  _31
REMARK   13  A    between atoms: _33  and  _35
REMARK   14  A    between atoms: _35  and  _36
REMARK   15  A    between atoms: _35  and  _38
REMARK   16  A    between atoms: _38  and  _39
REMARK   17  A    between atoms: _42  and  _44
REMARK   18  A    between atoms: _44  and  _45
REMARK   19  A    between atoms: _44  and  _47
REMARK   20  A    between atoms: _47  and  _48
REMARK   21  A    between atoms: _50  and  _52
REMARK   22  A    between atoms: _52  and  _53
REMARK   23  A    between atoms: _52  and  _55
REMARK   24  A    between atoms: _55  and  _56
REMARK   25  A    between atoms: _59  and  _61
REMARK   26  A    between atoms: _61  and  _62
REMARK   27  A    between atoms: _61  and  _64
REMARK   28  A    between atoms: _64  and  _65
REMARK   29  A    between atoms: _67  and  _69
REMARK   30  A    between atoms: _69  and  _70
REMARK   31  A    between atoms: _69  and  _72
REMARK   32  A    between atoms: _74  and  _76
REMARK   33  A    between atoms: _76  and  _77
REMARK   34  A    between atoms: _76  and  _79
REMARK   35  A    between atoms: _79  and  _80
REMARK   36  A    between atoms: _83  and  _85
REMARK   37  A    between atoms: _85  and  _86
REMARK   38  A    between atoms: _85  and  _88
REMARK   39  A    between atoms: _88  and  _89
REMARK   40  A    between atoms: _95  and  _97
REMARK   41  A    between atoms: _97  and  _98
REMARK   42  A    between atoms: _97  and  _100
REMARK   43  A    between atoms: _100  and  _101
REMARK   44  A    between atoms: _101  and  _102
REMARK   45  A    between atoms: _102  and  _103
REMARK   46  A    between atoms: _113  and  _114
REMARK   47  A    between atoms: _119  and  _121
REMARK   48  A    between atoms: _121  and  _122
REMARK   49  A    between atoms: _121  and  _124
REMARK   50  A    between atoms: _124  and  _125
REMARK   51  A    between atoms: _125  and  _126
REMARK   52  A    between atoms: _129  and  _131
REMARK   53  A    between atoms: _131  and  _132
REMARK   54  A    between atoms: _135  and  _137
REMARK   55  A    between atoms: _137  and  _138
REMARK   56  A    between atoms: _137  and  _140
REMARK   57  A    between atoms: _143  and  _145
REMARK   58  A    between atoms: _145  and  _146
REMARK   59  A    between atoms: _145  and  _148
REMARK   60  A    between atoms: _148  and  _149
REMARK   61  A    between atoms: _155  and  _157
REMARK   62  A    between atoms: _157  and  _158
REMARK   63  A    between atoms: _157  and  _160
REMARK   64  A    between atoms: _160  and  _161
REMARK   65  A    between atoms: _164  and  _166
REMARK   66  A    between atoms: _166  and  _167
REMARK   67  A    between atoms: _166  and  _169
REMARK   68  A    between atoms: _169  and  _170
REMARK   69  A    between atoms: _176  and  _178
REMARK   70  A    between atoms: _178  and  _179
REMARK   71  A    between atoms: _178  and  _181
REMARK   72  A    between atoms: _181  and  _182
REMARK   73  A    between atoms: _185  and  _187
REMARK   74  A    between atoms: _187  and  _188
REMARK   75  A    between atoms: _187  and  _190
REMARK   76  A    between atoms: _190  and  _191
REMARK   77  A    between atoms: _191  and  _192
REMARK   78  A    between atoms: _197  and  _199
REMARK   79  A    between atoms: _199  and  _200
REMARK   80  A    between atoms: _199  and  _202
REMARK   81  A    between atoms: _202  and  _203
REMARK   82  A    between atoms: _208  and  _210
REMARK   83  A    between atoms: _210  and  _211
REMARK   84  A    between atoms: _210  and  _213
REMARK   85  A    between atoms: _213  and  _214
REMARK   86  A    between atoms: _217  and  _219
REMARK   87  A    between atoms: _219  and  _220
REMARK   88  A    between atoms: _219  and  _222
REMARK   89  A    between atoms: _222  and  _223
REMARK   90  A    between atoms: _228  and  _230
REMARK   91  A    between atoms: _230  and  _231
REMARK   92  A    between atoms: _230  and  _233
REMARK   93  A    between atoms: _233  and  _234
REMARK   94  A    between atoms: _237  and  _239
REMARK   95  A    between atoms: _239  and  _240
REMARK   96  A    between atoms: _239  and  _242
REMARK   97  A    between atoms: _245  and  _247
REMARK   98  A    between atoms: _247  and  _248
REMARK   99  A    between atoms: _247  and  _250
REMARK  100  A    between atoms: _250  and  _251
REMARK  101  A    between atoms: _257  and  _259
REMARK  102  A    between atoms: _259  and  _260
REMARK  103  A    between atoms: _259  and  _262
REMARK  104  A    between atoms: _265  and  _267
REMARK  105  A    between atoms: _267  and  _268
REMARK  106  A    between atoms: _267  and  _270
REMARK  107  A    between atoms: _273  and  _275
REMARK  108  A    between atoms: _275  and  _276
REMARK  109  A    between atoms: _278  and  _280
REMARK  110  A    between atoms: _280  and  _281
REMARK  111  A    between atoms: _280  and  _283
REMARK  112  A    between atoms: _283  and  _284
REMARK  113  A    between atoms: _287  and  _289
REMARK  114  A    between atoms: _289  and  _290
REMARK  115  A    between atoms: _289  and  _292
REMARK  116  A    between atoms: _292  and  _293
REMARK  117  A    between atoms: _295  and  _297
REMARK  118  A    between atoms: _297  and  _298
REMARK  119  A    between atoms: _297  and  _300
REMARK  120  A    between atoms: _300  and  _301
REMARK  121  A    between atoms: _304  and  _306
REMARK  122  A    between atoms: _306  and  _307
REMARK  123  A    between atoms: _310  and  _312
REMARK  124  A    between atoms: _312  and  _313
REMARK  125  A    between atoms: _312  and  _315
REMARK  126  A    between atoms: _318  and  _320
REMARK  127  A    between atoms: _320  and  _321
REMARK  128  A    between atoms: _320  and  _323
REMARK  129  A    between atoms: _323  and  _324
REMARK  130  A    between atoms: _329  and  _330
REMARK  131  A    between atoms: _332  and  _334
REMARK  132  A    between atoms: _334  and  _335
REMARK  133  A    between atoms: _334  and  _337
REMARK  134  A    between atoms: _337  and  _338
REMARK  135  A    between atoms: _344  and  _346
REMARK  136  A    between atoms: _346  and  _347
REMARK  137  A    between atoms: _346  and  _349
REMARK  138  A    between atoms: _349  and  _350
REMARK  139  A    between atoms: _353  and  _355
REMARK  140  A    between atoms: _355  and  _356
REMARK  141  A    between atoms: _355  and  _358
REMARK  142  A    between atoms: _360  and  _362
REMARK  143  A    between atoms: _362  and  _363
REMARK  144  A    between atoms: _362  and  _365
REMARK  145  A    between atoms: _365  and  _366
REMARK  146  A    between atoms: _371  and  _373
REMARK  147  A    between atoms: _373  and  _374
REMARK  148  A    between atoms: _373  and  _376
REMARK  149  A    between atoms: _376  and  _377
REMARK  150  A    between atoms: _380  and  _382
REMARK  151  A    between atoms: _382  and  _383
REMARK  152  A    between atoms: _382  and  _385
REMARK  153  A    between atoms: _385  and  _386
REMARK  154  A    between atoms: _386  and  _387
REMARK  155  A    between atoms: _390  and  _392
REMARK  156  A    between atoms: _392  and  _393
REMARK  157  A    between atoms: _392  and  _395
REMARK  158  A    between atoms: _395  and  _396
REMARK  159  A    between atoms: _399  and  _401
REMARK  160  A    between atoms: _401  and  _402
REMARK  161  A    between atoms: _401  and  _404
REMARK  162  A    between atoms: _407  and  _409
REMARK  163  A    between atoms: _409  and  _410
REMARK  164  A    between atoms: _412  and  _414
REMARK  165  A    between atoms: _414  and  _415
REMARK  166  A    between atoms: _414  and  _417
REMARK  167  A    between atoms: _420  and  _422
REMARK  168  A    between atoms: _422  and  _423
REMARK  169  A    between atoms: _422  and  _425
REMARK  170  A    between atoms: _425  and  _426
REMARK  171  A    between atoms: _431  and  _433
REMARK  172  A    between atoms: _433  and  _434
REMARK  173  A    between atoms: _433  and  _436
REMARK  174  A    between atoms: _436  and  _437
REMARK  175  A    between atoms: _437  and  _438
REMARK  176  A    between atoms: _443  and  _445
REMARK  177  A    between atoms: _445  and  _446
REMARK  178  A    between atoms: _445  and  _448
REMARK  179  A    between atoms: _448  and  _449
REMARK  180  A    between atoms: _454  and  _455
REMARK  181  A    between atoms: _457  and  _459
REMARK  182  A    between atoms: _459  and  _460
REMARK  183  A    between atoms: _459  and  _462
REMARK  184  A    between atoms: _462  and  _463
REMARK  185  A    between atoms: _465  and  _467
REMARK  186  A    between atoms: _467  and  _468
REMARK  187  A    between atoms: _467  and  _470
REMARK  188  A    between atoms: _470  and  _471
REMARK  189  A    between atoms: _474  and  _476
REMARK  190  A    between atoms: _476  and  _477
REMARK  191  A    between atoms: _476  and  _479
REMARK  192  A    between atoms: _479  and  _480
REMARK  193  A    between atoms: _480  and  _481
REMARK  194  A    between atoms: _484  and  _486
REMARK  195  A    between atoms: _486  and  _487
REMARK  196  A    between atoms: _486  and  _489
REMARK  197  A    between atoms: _489  and  _490
REMARK  198  A    between atoms: _496  and  _498
REMARK  199  A    between atoms: _498  and  _499
REMARK                            x       y       z     vdW  Elec       q    Type
REMARK                         _______ _______ _______ _____ _____    ______ ____
ROOT
ATOM      1  O   HOH     1      -5.307  23.328 -43.227  0.00  0.00    +0.000 OA
ENDROOT
TORSDOF 0
REMARK  Name = ../refined-set-2016/1szd/1szd_pocket.pdb
REMARK  199 active torsions:
REMARK  status: ('A' for Active; 'I' for Inactive)
REMARK    1  A    between atoms: _1  and  _3
REMARK    2  A    between atoms: _3  and  _4
REMARK    3  A    between atoms: _3  and  _6
REMARK    4  A    between atoms: _9  and  _11
REMARK    5  A    between atoms: _11  and  _12
REMARK    6  A    between atoms: _11  and  _14
REMARK    7  A    between atoms: _17  and  _19
REMARK    8  A    between atoms: _19  and  _20
REMARK    9  A    between atoms: _22  and  _24
REMARK   10  A    between atoms: _24  and  _25
REMARK   11  A    between atoms: _28  and  _30
REMARK   12  A    between atoms: _30  and  _31
REMARK   13  A    between atoms: _33  and  _35
REMARK   14  A    between atoms: _35  and  _36
REMARK   15  A    between atoms: _35  and  _38
REMARK   16  A    between atoms: _38  and  _39
REMARK   17  A    between atoms: _42  and  _44
REMARK   18  A    between atoms: _44  and  _45
REMARK   19  A    between atoms: _44  and  _47
REMARK   20  A    between atoms: _47  and  _48
REMARK   21  A    between atoms: _50  and  _52
REMARK   22  A    between atoms: _52  and  _53
REMARK   23  A    between atoms: _52  and  _55
REMARK   24  A    between atoms: _55  and  _56
REMARK   25  A    between atoms: _59  and  _61
REMARK   26  A    between atoms: _61  and  _62
REMARK   27  A    between atoms: _61  and  _64
REMARK   28  A    between atoms: _64  and  _65
REMARK   29  A    between atoms: _67  and  _69
REMARK   30  A    between atoms: _69  and  _70
REMARK   31  A    between atoms: _69  and  _72
REMARK   32  A    between atoms: _74  and  _76
REMARK   33  A    between atoms: _76  and  _77
REMARK   34  A    between atoms: _76  and  _79
REMARK   35  A    between atoms: _79  and  _80
REMARK   36  A    between atoms: _83  and  _85
REMARK   37  A    between atoms: _85  and  _86
REMARK   38  A    between atoms: _85  and  _88
REMARK   39  A    between atoms: _88  and  _89
REMARK   40  A    between atoms: _95  and  _97
REMARK   41  A    between atoms: _97  and  _98
REMARK   42  A    between atoms: _97  and  _100
REMARK   43  A    between atoms: _100  and  _101
REMARK   44  A    between atoms: _101  and  _102
REMARK   45  A    between atoms: _102  and  _103
REMARK   46  A    between atoms: _113  and  _114
REMARK   47  A    between atoms: _119  and  _121
REMARK   48  A    between atoms: _121  and  _122
REMARK   49  A    between atoms: _121  and  _124
REMARK   50  A    between atoms: _124  and  _125
REMARK   51  A    between atoms: _125  and  _126
REMARK   52  A    between atoms: _129  and  _131
REMARK   53  A    between atoms: _131  and  _132
REMARK   54  A    between atoms: _135  and  _137
REMARK   55  A    between atoms: _137  and  _138
REMARK   56  A    between atoms: _137  and  _140
REMARK   57  A    between atoms: _143  and  _145
REMARK   58  A    between atoms: _145  and  _146
REMARK   59  A    between atoms: _145  and  _148
REMARK   60  A    between atoms: _148  and  _149
REMARK   61  A    between atoms: _155  and  _157
REMARK   62  A    between atoms: _157  and  _158
REMARK   63  A    between atoms: _157  and  _160
REMARK   64  A    between atoms: _160  and  _161
REMARK   65  A    between atoms: _164  and  _166
REMARK   66  A    between atoms: _166  and  _167
REMARK   67  A    between atoms: _166  and  _169
REMARK   68  A    between atoms: _169  and  _170
REMARK   69  A    between atoms: _176  and  _178
REMARK   70  A    between atoms: _178  and  _179
REMARK   71  A    between atoms: _178  and  _181
REMARK   72  A    between atoms: _181  and  _182
REMARK   73  A    between atoms: _185  and  _187
REMARK   74  A    between atoms: _187  and  _188
REMARK   75  A    between atoms: _187  and  _190
REMARK   76  A    between atoms: _190  and  _191
REMARK   77  A    between atoms: _191  and  _192
REMARK   78  A    between atoms: _197  and  _199
REMARK   79  A    between atoms: _199  and  _200
REMARK   80  A    between atoms: _199  and  _202
REMARK   81  A    between atoms: _202  and  _203
REMARK   82  A    between atoms: _208  and  _210
REMARK   83  A    between atoms: _210  and  _211
REMARK   84  A    between atoms: _210  and  _213
REMARK   85  A    between atoms: _213  and  _214
REMARK   86  A    between atoms: _217  and  _219
REMARK   87  A    between atoms: _219  and  _220
REMARK   88  A    between atoms: _219  and  _222
REMARK   89  A    between atoms: _222  and  _223
REMARK   90  A    between atoms: _228  and  _230
REMARK   91  A    between atoms: _230  and  _231
REMARK   92  A    between atoms: _230  and  _233
REMARK   93  A    between atoms: _233  and  _234
REMARK   94  A    between atoms: _237  and  _239
REMARK   95  A    between atoms: _239  and  _240
REMARK   96  A    between atoms: _239  and  _242
REMARK   97  A    between atoms: _245  and  _247
REMARK   98  A    between atoms: _247  and  _248
REMARK   99  A    between atoms: _247  and  _250
REMARK  100  A    between atoms: _250  and  _251
REMARK  101  A    between atoms: _257  and  _259
REMARK  102  A    between atoms: _259  and  _260
REMARK  103  A    between atoms: _259  and  _262
REMARK  104  A    between atoms: _265  and  _267
REMARK  105  A    between atoms: _267  and  _268
REMARK  106  A    between atoms: _267  and  _270
REMARK  107  A    between atoms: _273  and  _275
REMARK  108  A    between atoms: _275  and  _276
REMARK  109  A    between atoms: _278  and  _280
REMARK  110  A    between atoms: _280  and  _281
REMARK  111  A    between atoms: _280  and  _283
REMARK  112  A    between atoms: _283  and  _284
REMARK  113  A    between atoms: _287  and  _289
REMARK  114  A    between atoms: _289  and  _290
REMARK  115  A    between atoms: _289  and  _292
REMARK  116  A    between atoms: _292  and  _293
REMARK  117  A    between atoms: _295  and  _297
REMARK  118  A    between atoms: _297  and  _298
REMARK  119  A    between atoms: _297  and  _300
REMARK  120  A    between atoms: _300  and  _301
REMARK  121  A    between atoms: _304  and  _306
REMARK  122  A    between atoms: _306  and  _307
REMARK  123  A    between atoms: _310  and  _312
REMARK  124  A    between atoms: _312  and  _313
REMARK  125  A    between atoms: _312  and  _315
REMARK  126  A    between atoms: _318  and  _320
REMARK  127  A    between atoms: _320  and  _321
REMARK  128  A    between atoms: _320  and  _323
REMARK  129  A    between atoms: _323  and  _324
REMARK  130  A    between atoms: _329  and  _330
REMARK  131  A    between atoms: _332  and  _334
REMARK  132  A    between atoms: _334  and  _335
REMARK  133  A    between atoms: _334  and  _337
REMARK  134  A    between atoms: _337  and  _338
REMARK  135  A    between atoms: _344  and  _346
REMARK  136  A    between atoms: _346  and  _347
REMARK  137  A    between atoms: _346  and  _349
REMARK  138  A    between atoms: _349  and  _350
REMARK  139  A    between atoms: _353  and  _355
REMARK  140  A    between atoms: _355  and  _356
REMARK  141  A    between atoms: _355  and  _358
REMARK  142  A    between atoms: _360  and  _362
REMARK  143  A    between atoms: _362  and  _363
REMARK  144  A    between atoms: _362  and  _365
REMARK  145  A    between atoms: _365  and  _366
REMARK  146  A    between atoms: _371  and  _373
REMARK  147  A    between atoms: _373  and  _374
REMARK  148  A    between atoms: _373  and  _376
REMARK  149  A    between atoms: _376  and  _377
REMARK  150  A    between atoms: _380  and  _382
REMARK  151  A    between atoms: _382  and  _383
REMARK  152  A    between atoms: _382  and  _385
REMARK  153  A    between atoms: _385  and  _386
REMARK  154  A    between atoms: _386  and  _387
REMARK  155  A    between atoms: _390  and  _392
REMARK  156  A    between atoms: _392  and  _393
REMARK  157  A    between atoms: _392  and  _395
REMARK  158  A    between atoms: _395  and  _396
REMARK  159  A    between atoms: _399  and  _401
REMARK  160  A    between atoms: _401  and  _402
REMARK  161  A    between atoms: _401  and  _404
REMARK  162  A    between atoms: _407  and  _409
REMARK  163  A    between atoms: _409  and  _410
REMARK  164  A    between atoms: _412  and  _414
REMARK  165  A    between atoms: _414  and  _415
REMARK  166  A    between atoms: _414  and  _417
REMARK  167  A    between atoms: _420  and  _422
REMARK  168  A    between atoms: _422  and  _423
REMARK  169  A    between atoms: _422  and  _425
REMARK  170  A    between atoms: _425  and  _426
REMARK  171  A    between atoms: _431  and  _433
REMARK  172  A    between atoms: _433  and  _434
REMARK  173  A    between atoms: _433  and  _436
REMARK  174  A    between atoms: _436  and  _437
REMARK  175  A    between atoms: _437  and  _438
REMARK  176  A    between atoms: _443  and  _445
REMARK  177  A    between atoms: _445  and  _446
REMARK  178  A    between atoms: _445  and  _448
REMARK  179  A    between atoms: _448  and  _449
REMARK  180  A    between atoms: _454  and  _455
REMARK  181  A    between atoms: _457  and  _459
REMARK  182  A    between atoms: _459  and  _460
REMARK  183  A    between atoms: _459  and  _462
REMARK  184  A    between atoms: _462  and  _463
REMARK  185  A    between atoms: _465  and  _467
REMARK  186  A    between atoms: _467  and  _468
REMARK  187  A    between atoms: _467  and  _470
REMARK  188  A    between atoms: _470  and  _471
REMARK  189  A    between atoms: _474  and  _476
REMARK  190  A    between atoms: _476  and  _477
REMARK  191  A    between atoms: _476  and  _479
REMARK  192  A    between atoms: _479  and  _480
REMARK  193  A    between atoms: _480  and  _481
REMARK  194  A    between atoms: _484  and  _486
REMARK  195  A    between atoms: _486  and  _487
REMARK  196  A    between atoms: _486  and  _489
REMARK  197  A    between atoms: _489  and  _490
REMARK  198  A    between atoms: _496  and  _498
REMARK  199  A    between atoms: _498  and  _499
REMARK                            x       y       z     vdW  Elec       q    Type
REMARK                         _______ _______ _______ _____ _____    ______ ____
ROOT
ATOM      1  O   HOH     1     -12.695  34.897 -42.575  0.00  0.00    +0.000 OA
ENDROOT
TORSDOF 0
REMARK  Name = ../refined-set-2016/1szd/1szd_pocket.pdb
REMARK  199 active torsions:
REMARK  status: ('A' for Active; 'I' for Inactive)
REMARK    1  A    between atoms: _1  and  _3
REMARK    2  A    between atoms: _3  and  _4
REMARK    3  A    between atoms: _3  and  _6
REMARK    4  A    between atoms: _9  and  _11
REMARK    5  A    between atoms: _11  and  _12
REMARK    6  A    between atoms: _11  and  _14
REMARK    7  A    between atoms: _17  and  _19
REMARK    8  A    between atoms: _19  and  _20
REMARK    9  A    between atoms: _22  and  _24
REMARK   10  A    between atoms: _24  and  _25
REMARK   11  A    between atoms: _28  and  _30
REMARK   12  A    between atoms: _30  and  _31
REMARK   13  A    between atoms: _33  and  _35
REMARK   14  A    between atoms: _35  and  _36
REMARK   15  A    between atoms: _35  and  _38
REMARK   16  A    between atoms: _38  and  _39
REMARK   17  A    between atoms: _42  and  _44
REMARK   18  A    between atoms: _44  and  _45
REMARK   19  A    between atoms: _44  and  _47
REMARK   20  A    between atoms: _47  and  _48
REMARK   21  A    between atoms: _50  and  _52
REMARK   22  A    between atoms: _52  and  _53
REMARK   23  A    between atoms: _52  and  _55
REMARK   24  A    between atoms: _55  and  _56
REMARK   25  A    between atoms: _59  and  _61
REMARK   26  A    between atoms: _61  and  _62
REMARK   27  A    between atoms: _61  and  _64
REMARK   28  A    between atoms: _64  and  _65
REMARK   29  A    between atoms: _67  and  _69
REMARK   30  A    between atoms: _69  and  _70
REMARK   31  A    between atoms: _69  and  _72
REMARK   32  A    between atoms: _74  and  _76
REMARK   33  A    between atoms: _76  and  _77
REMARK   34  A    between atoms: _76  and  _79
REMARK   35  A    between atoms: _79  and  _80
REMARK   36  A    between atoms: _83  and  _85
REMARK   37  A    between atoms: _85  and  _86
REMARK   38  A    between atoms: _85  and  _88
REMARK   39  A    between atoms: _88  and  _89
REMARK   40  A    between atoms: _95  and  _97
REMARK   41  A    between atoms: _97  and  _98
REMARK   42  A    between atoms: _97  and  _100
REMARK   43  A    between atoms: _100  and  _101
REMARK   44  A    between atoms: _101  and  _102
REMARK   45  A    between atoms: _102  and  _103
REMARK   46  A    between atoms: _113  and  _114
REMARK   47  A    between atoms: _119  and  _121
REMARK   48  A    between atoms: _121  and  _122
REMARK   49  A    between atoms: _121  and  _124
REMARK   50  A    between atoms: _124  and  _125
REMARK   51  A    between atoms: _125  and  _126
REMARK   52  A    between atoms: _129  and  _131
REMARK   53  A    between atoms: _131  and  _132
REMARK   54  A    between atoms: _135  and  _137
REMARK   55  A    between atoms: _137  and  _138
REMARK   56  A    between atoms: _137  and  _140
REMARK   57  A    between atoms: _143  and  _145
REMARK   58  A    between atoms: _145  and  _146
REMARK   59  A    between atoms: _145  and  _148
REMARK   60  A    between atoms: _148  and  _149
REMARK   61  A    between atoms: _155  and  _157
REMARK   62  A    between atoms: _157  and  _158
REMARK   63  A    between atoms: _157  and  _160
REMARK   64  A    between atoms: _160  and  _161
REMARK   65  A    between atoms: _164  and  _166
REMARK   66  A    between atoms: _166  and  _167
REMARK   67  A    between atoms: _166  and  _169
REMARK   68  A    between atoms: _169  and  _170
REMARK   69  A    between atoms: _176  and  _178
REMARK   70  A    between atoms: _178  and  _179
REMARK   71  A    between atoms: _178  and  _181
REMARK   72  A    between atoms: _181  and  _182
REMARK   73  A    between atoms: _185  and  _187
REMARK   74  A    between atoms: _187  and  _188
REMARK   75  A    between atoms: _187  and  _190
REMARK   76  A    between atoms: _190  and  _191
REMARK   77  A    between atoms: _191  and  _192
REMARK   78  A    between atoms: _197  and  _199
REMARK   79  A    between atoms: _199  and  _200
REMARK   80  A    between atoms: _199  and  _202
REMARK   81  A    between atoms: _202  and  _203
REMARK   82  A    between atoms: _208  and  _210
REMARK   83  A    between atoms: _210  and  _211
REMARK   84  A    between atoms: _210  and  _213
REMARK   85  A    between atoms: _213  and  _214
REMARK   86  A    between atoms: _217  and  _219
REMARK   87  A    between atoms: _219  and  _220
REMARK   88  A    between atoms: _219  and  _222
REMARK   89  A    between atoms: _222  and  _223
REMARK   90  A    between atoms: _228  and  _230
REMARK   91  A    between atoms: _230  and  _231
REMARK   92  A    between atoms: _230  and  _233
REMARK   93  A    between atoms: _233  and  _234
REMARK   94  A    between atoms: _237  and  _239
REMARK   95  A    between atoms: _239  and  _240
REMARK   96  A    between atoms: _239  and  _242
REMARK   97  A    between atoms: _245  and  _247
REMARK   98  A    between atoms: _247  and  _248
REMARK   99  A    between atoms: _247  and  _250
REMARK  100  A    between atoms: _250  and  _251
REMARK  101  A    between atoms: _257  and  _259
REMARK  102  A    between atoms: _259  and  _260
REMARK  103  A    between atoms: _259  and  _262
REMARK  104  A    between atoms: _265  and  _267
REMARK  105  A    between atoms: _267  and  _268
REMARK  106  A    between atoms: _267  and  _270
REMARK  107  A    between atoms: _273  and  _275
REMARK  108  A    between atoms: _275  and  _276
REMARK  109  A    between atoms: _278  and  _280
REMARK  110  A    between atoms: _280  and  _281
REMARK  111  A    between atoms: _280  and  _283
REMARK  112  A    between atoms: _283  and  _284
REMARK  113  A    between atoms: _287  and  _289
REMARK  114  A    between atoms: _289  and  _290
REMARK  115  A    between atoms: _289  and  _292
REMARK  116  A    between atoms: _292  and  _293
REMARK  117  A    between atoms: _295  and  _297
REMARK  118  A    between atoms: _297  and  _298
REMARK  119  A    between atoms: _297  and  _300
REMARK  120  A    between atoms: _300  and  _301
REMARK  121  A    between atoms: _304  and  _306
REMARK  122  A    between atoms: _306  and  _307
REMARK  123  A    between atoms: _310  and  _312
REMARK  124  A    between atoms: _312  and  _313
REMARK  125  A    between atoms: _312  and  _315
REMARK  126  A    between atoms: _318  and  _320
REMARK  127  A    between atoms: _320  and  _321
REMARK  128  A    between atoms: _320  and  _323
REMARK  129  A    between atoms: _323  and  _324
REMARK  130  A    between atoms: _329  and  _330
REMARK  131  A    between atoms: _332  and  _334
REMARK  132  A    between atoms: _334  and  _335
REMARK  133  A    between atoms: _334  and  _337
REMARK  134  A    between atoms: _337  and  _338
REMARK  135  A    between atoms: _344  and  _346
REMARK  136  A    between atoms: _346  and  _347
REMARK  137  A    between atoms: _346  and  _349
REMARK  138  A    between atoms: _349  and  _350
REMARK  139  A    between atoms: _353  and  _355
REMARK  140  A    between atoms: _355  and  _356
REMARK  141  A    between atoms: _355  and  _358
REMARK  142  A    between atoms: _360  and  _362
REMARK  143  A    between atoms: _362  and  _363
REMARK  144  A    between atoms: _362  and  _365
REMARK  145  A    between atoms: _365  and  _366
REMARK  146  A    between atoms: _371  and  _373
REMARK  147  A    between atoms: _373  and  _374
REMARK  148  A    between atoms: _373  and  _376
REMARK  149  A    between atoms: _376  and  _377
REMARK  150  A    between atoms: _380  and  _382
REMARK  151  A    between atoms: _382  and  _383
REMARK  152  A    between atoms: _382  and  _385
REMARK  153  A    between atoms: _385  and  _386
REMARK  154  A    between atoms: _386  and  _387
REMARK  155  A    between atoms: _390  and  _392
REMARK  156  A    between atoms: _392  and  _393
REMARK  157  A    between atoms: _392  and  _395
REMARK  158  A    between atoms: _395  and  _396
REMARK  159  A    between atoms: _399  and  _401
REMARK  160  A    between atoms: _401  and  _402
REMARK  161  A    between atoms: _401  and  _404
REMARK  162  A    between atoms: _407  and  _409
REMARK  163  A    between atoms: _409  and  _410
REMARK  164  A    between atoms: _412  and  _414
REMARK  165  A    between atoms: _414  and  _415
REMARK  166  A    between atoms: _414  and  _417
REMARK  167  A    between atoms: _420  and  _422
REMARK  168  A    between atoms: _422  and  _423
REMARK  169  A    between atoms: _422  and  _425
REMARK  170  A    between atoms: _425  and  _426
REMARK  171  A    between atoms: _431  and  _433
REMARK  172  A    between atoms: _433  and  _434
REMARK  173  A    between atoms: _433  and  _436
REMARK  174  A    between atoms: _436  and  _437
REMARK  175  A    between atoms: _437  and  _438
REMARK  176  A    between atoms: _443  and  _445
REMARK  177  A    between atoms: _445  and  _446
REMARK  178  A    between atoms: _445  and  _448
REMARK  179  A    between atoms: _448  and  _449
REMARK  180  A    between atoms: _454  and  _455
REMARK  181  A    between atoms: _457  and  _459
REMARK  182  A    between atoms: _459  and  _460
REMARK  183  A    between atoms: _459  and  _462
REMARK  184  A    between atoms: _462  and  _463
REMARK  185  A    between atoms: _465  and  _467
REMARK  186  A    between atoms: _467  and  _468
REMARK  187  A    between atoms: _467  and  _470
REMARK  188  A    between atoms: _470  and  _471
REMARK  189  A    between atoms: _474  and  _476
REMARK  190  A    between atoms: _476  and  _477
REMARK  191  A    between atoms: _476  and  _479
REMARK  192  A    between atoms: _479  and  _480
REMARK  193  A    between atoms: _480  and  _481
REMARK  194  A    between atoms: _484  and  _486
REMARK  195  A    between atoms: _486  and  _487
REMARK  196  A    between atoms: _486  and  _489
REMARK  197  A    between atoms: _489  and  _490
REMARK  198  A    between atoms: _496  and  _498
REMARK  199  A    between atoms: _498  and  _499
REMARK                            x       y       z     vdW  Elec       q    Type
REMARK                         _______ _______ _______ _____ _____    ______ ____
ROOT
ATOM      1  O   HOH     1     -10.678  26.639 -42.280  0.00  0.00    +0.000 OA
ENDROOT
TORSDOF 0
REMARK  Name = ../refined-set-2016/1szd/1szd_pocket.pdb
REMARK  199 active torsions:
REMARK  status: ('A' for Active; 'I' for Inactive)
REMARK    1  A    between atoms: _1  and  _3
REMARK    2  A    between atoms: _3  and  _4
REMARK    3  A    between atoms: _3  and  _6
REMARK    4  A    between atoms: _9  and  _11
REMARK    5  A    between atoms: _11  and  _12
REMARK    6  A    between atoms: _11  and  _14
REMARK    7  A    between atoms: _17  and  _19
REMARK    8  A    between atoms: _19  and  _20
REMARK    9  A    between atoms: _22  and  _24
REMARK   10  A    between atoms: _24  and  _25
REMARK   11  A    between atoms: _28  and  _30
REMARK   12  A    between atoms: _30  and  _31
REMARK   13  A    between atoms: _33  and  _35
REMARK   14  A    between atoms: _35  and  _36
REMARK   15  A    between atoms: _35  and  _38
REMARK   16  A    between atoms: _38  and  _39
REMARK   17  A    between atoms: _42  and  _44
REMARK   18  A    between atoms: _44  and  _45
REMARK   19  A    between atoms: _44  and  _47
REMARK   20  A    between atoms: _47  and  _48
REMARK   21  A    between atoms: _50  and  _52
REMARK   22  A    between atoms: _52  and  _53
REMARK   23  A    between atoms: _52  and  _55
REMARK   24  A    between atoms: _55  and  _56
REMARK   25  A    between atoms: _59  and  _61
REMARK   26  A    between atoms: _61  and  _62
REMARK   27  A    between atoms: _61  and  _64
REMARK   28  A    between atoms: _64  and  _65
REMARK   29  A    between atoms: _67  and  _69
REMARK   30  A    between atoms: _69  and  _70
REMARK   31  A    between atoms: _69  and  _72
REMARK   32  A    between atoms: _74  and  _76
REMARK   33  A    between atoms: _76  and  _77
REMARK   34  A    between atoms: _76  and  _79
REMARK   35  A    between atoms: _79  and  _80
REMARK   36  A    between atoms: _83  and  _85
REMARK   37  A    between atoms: _85  and  _86
REMARK   38  A    between atoms: _85  and  _88
REMARK   39  A    between atoms: _88  and  _89
REMARK   40  A    between atoms: _95  and  _97
REMARK   41  A    between atoms: _97  and  _98
REMARK   42  A    between atoms: _97  and  _100
REMARK   43  A    between atoms: _100  and  _101
REMARK   44  A    between atoms: _101  and  _102
REMARK   45  A    between atoms: _102  and  _103
REMARK   46  A    between atoms: _113  and  _114
REMARK   47  A    between atoms: _119  and  _121
REMARK   48  A    between atoms: _121  and  _122
REMARK   49  A    between atoms: _121  and  _124
REMARK   50  A    between atoms: _124  and  _125
REMARK   51  A    between atoms: _125  and  _126
REMARK   52  A    between atoms: _129  and  _131
REMARK   53  A    between atoms: _131  and  _132
REMARK   54  A    between atoms: _135  and  _137
REMARK   55  A    between atoms: _137  and  _138
REMARK   56  A    between atoms: _137  and  _140
REMARK   57  A    between atoms: _143  and  _145
REMARK   58  A    between atoms: _145  and  _146
REMARK   59  A    between atoms: _145  and  _148
REMARK   60  A    between atoms: _148  and  _149
REMARK   61  A    between atoms: _155  and  _157
REMARK   62  A    between atoms: _157  and  _158
REMARK   63  A    between atoms: _157  and  _160
REMARK   64  A    between atoms: _160  and  _161
REMARK   65  A    between atoms: _164  and  _166
REMARK   66  A    between atoms: _166  and  _167
REMARK   67  A    between atoms: _166  and  _169
REMARK   68  A    between atoms: _169  and  _170
REMARK   69  A    between atoms: _176  and  _178
REMARK   70  A    between atoms: _178  and  _179
REMARK   71  A    between atoms: _178  and  _181
REMARK   72  A    between atoms: _181  and  _182
REMARK   73  A    between atoms: _185  and  _187
REMARK   74  A    between atoms: _187  and  _188
REMARK   75  A    between atoms: _187  and  _190
REMARK   76  A    between atoms: _190  and  _191
REMARK   77  A    between atoms: _191  and  _192
REMARK   78  A    between atoms: _197  and  _199
REMARK   79  A    between atoms: _199  and  _200
REMARK   80  A    between atoms: _199  and  _202
REMARK   81  A    between atoms: _202  and  _203
REMARK   82  A    between atoms: _208  and  _210
REMARK   83  A    between atoms: _210  and  _211
REMARK   84  A    between atoms: _210  and  _213
REMARK   85  A    between atoms: _213  and  _214
REMARK   86  A    between atoms: _217  and  _219
REMARK   87  A    between atoms: _219  and  _220
REMARK   88  A    between atoms: _219  and  _222
REMARK   89  A    between atoms: _222  and  _223
REMARK   90  A    between atoms: _228  and  _230
REMARK   91  A    between atoms: _230  and  _231
REMARK   92  A    between atoms: _230  and  _233
REMARK   93  A    between atoms: _233  and  _234
REMARK   94  A    between atoms: _237  and  _239
REMARK   95  A    between atoms: _239  and  _240
REMARK   96  A    between atoms: _239  and  _242
REMARK   97  A    between atoms: _245  and  _247
REMARK   98  A    between atoms: _247  and  _248
REMARK   99  A    between atoms: _247  and  _250
REMARK  100  A    between atoms: _250  and  _251
REMARK  101  A    between atoms: _257  and  _259
REMARK  102  A    between atoms: _259  and  _260
REMARK  103  A    between atoms: _259  and  _262
REMARK  104  A    between atoms: _265  and  _267
REMARK  105  A    between atoms: _267  and  _268
REMARK  106  A    between atoms: _267  and  _270
REMARK  107  A    between atoms: _273  and  _275
REMARK  108  A    between atoms: _275  and  _276
REMARK  109  A    between atoms: _278  and  _280
REMARK  110  A    between atoms: _280  and  _281
REMARK  111  A    between atoms: _280  and  _283
REMARK  112  A    between atoms: _283  and  _284
REMARK  113  A    between atoms: _287  and  _289
REMARK  114  A    between atoms: _289  and  _290
REMARK  115  A    between atoms: _289  and  _292
REMARK  116  A    between atoms: _292  and  _293
REMARK  117  A    between atoms: _295  and  _297
REMARK  118  A    between atoms: _297  and  _298
REMARK  119  A    between atoms: _297  and  _300
REMARK  120  A    between atoms: _300  and  _301
REMARK  121  A    between atoms: _304  and  _306
REMARK  122  A    between atoms: _306  and  _307
REMARK  123  A    between atoms: _310  and  _312
REMARK  124  A    between atoms: _312  and  _313
REMARK  125  A    between atoms: _312  and  _315
REMARK  126  A    between atoms: _318  and  _320
REMARK  127  A    between atoms: _320  and  _321
REMARK  128  A    between atoms: _320  and  _323
REMARK  129  A    between atoms: _323  and  _324
REMARK  130  A    between atoms: _329  and  _330
REMARK  131  A    between atoms: _332  and  _334
REMARK  132  A    between atoms: _334  and  _335
REMARK  133  A    between atoms: _334  and  _337
REMARK  134  A    between atoms: _337  and  _338
REMARK  135  A    between atoms: _344  and  _346
REMARK  136  A    between atoms: _346  and  _347
REMARK  137  A    between atoms: _346  and  _349
REMARK  138  A    between atoms: _349  and  _350
REMARK  139  A    between atoms: _353  and  _355
REMARK  140  A    between atoms: _355  and  _356
REMARK  141  A    between atoms: _355  and  _358
REMARK  142  A    between atoms: _360  and  _362
REMARK  143  A    between atoms: _362  and  _363
REMARK  144  A    between atoms: _362  and  _365
REMARK  145  A    between atoms: _365  and  _366
REMARK  146  A    between atoms: _371  and  _373
REMARK  147  A    between atoms: _373  and  _374
REMARK  148  A    between atoms: _373  and  _376
REMARK  149  A    between atoms: _376  and  _377
REMARK  150  A    between atoms: _380  and  _382
REMARK  151  A    between atoms: _382  and  _383
REMARK  152  A    between atoms: _382  and  _385
REMARK  153  A    between atoms: _385  and  _386
REMARK  154  A    between atoms: _386  and  _387
REMARK  155  A    between atoms: _390  and  _392
REMARK  156  A    between atoms: _392  and  _393
REMARK  157  A    between atoms: _392  and  _395
REMARK  158  A    between atoms: _395  and  _396
REMARK  159  A    between atoms: _399  and  _401
REMARK  160  A    between atoms: _401  and  _402
REMARK  161  A    between atoms: _401  and  _404
REMARK  162  A    between atoms: _407  and  _409
REMARK  163  A    between atoms: _409  and  _410
REMARK  164  A    between atoms: _412  and  _414
REMARK  165  A    between atoms: _414  and  _415
REMARK  166  A    between atoms: _414  and  _417
REMARK  167  A    between atoms: _420  and  _422
REMARK  168  A    between atoms: _422  and  _423
REMARK  169  A    between atoms: _422  and  _425
REMARK  170  A    between atoms: _425  and  _426
REMARK  171  A    between atoms: _431  and  _433
REMARK  172  A    between atoms: _433  and  _434
REMARK  173  A    between atoms: _433  and  _436
REMARK  174  A    between atoms: _436  and  _437
REMARK  175  A    between atoms: _437  and  _438
REMARK  176  A    between atoms: _443  and  _445
REMARK  177  A    between atoms: _445  and  _446
REMARK  178  A    between atoms: _445  and  _448
REMARK  179  A    between atoms: _448  and  _449
REMARK  180  A    between atoms: _454  and  _455
REMARK  181  A    between atoms: _457  and  _459
REMARK  182  A    between atoms: _459  and  _460
REMARK  183  A    between atoms: _459  and  _462
REMARK  184  A    between atoms: _462  and  _463
REMARK  185  A    between atoms: _465  and  _467
REMARK  186  A    between atoms: _467  and  _468
REMARK  187  A    between atoms: _467  and  _470
REMARK  188  A    between atoms: _470  and  _471
REMARK  189  A    between atoms: _474  and  _476
REMARK  190  A    between atoms: _476  and  _477
REMARK  191  A    between atoms: _476  and  _479
REMARK  192  A    between atoms: _479  and  _480
REMARK  193  A    between atoms: _480  and  _481
REMARK  194  A    between atoms: _484  and  _486
REMARK  195  A    between atoms: _486  and  _487
REMARK  196  A    between atoms: _486  and  _489
REMARK  197  A    between atoms: _489  and  _490
REMARK  198  A    between atoms: _496  and  _498
REMARK  199  A    between atoms: _498  and  _499
REMARK                            x       y       z     vdW  Elec       q    Type
REMARK                         _______ _______ _______ _____ _____    ______ ____
ROOT
ATOM      1  O   HOH     1      -7.437  39.221 -45.000  0.00  0.00    +0.000 OA
ENDROOT
TORSDOF 0
REMARK  Name = ../refined-set-2016/1szd/1szd_pocket.pdb
REMARK  199 active torsions:
REMARK  status: ('A' for Active; 'I' for Inactive)
REMARK    1  A    between atoms: _1  and  _3
REMARK    2  A    between atoms: _3  and  _4
REMARK    3  A    between atoms: _3  and  _6
REMARK    4  A    between atoms: _9  and  _11
REMARK    5  A    between atoms: _11  and  _12
REMARK    6  A    between atoms: _11  and  _14
REMARK    7  A    between atoms: _17  and  _19
REMARK    8  A    between atoms: _19  and  _20
REMARK    9  A    between atoms: _22  and  _24
REMARK   10  A    between atoms: _24  and  _25
REMARK   11  A    between atoms: _28  and  _30
REMARK   12  A    between atoms: _30  and  _31
REMARK   13  A    between atoms: _33  and  _35
REMARK   14  A    between atoms: _35  and  _36
REMARK   15  A    between atoms: _35  and  _38
REMARK   16  A    between atoms: _38  and  _39
REMARK   17  A    between atoms: _42  and  _44
REMARK   18  A    between atoms: _44  and  _45
REMARK   19  A    between atoms: _44  and  _47
REMARK   20  A    between atoms: _47  and  _48
REMARK   21  A    between atoms: _50  and  _52
REMARK   22  A    between atoms: _52  and  _53
REMARK   23  A    between atoms: _52  and  _55
REMARK   24  A    between atoms: _55  and  _56
REMARK   25  A    between atoms: _59  and  _61
REMARK   26  A    between atoms: _61  and  _62
REMARK   27  A    between atoms: _61  and  _64
REMARK   28  A    between atoms: _64  and  _65
REMARK   29  A    between atoms: _67  and  _69
REMARK   30  A    between atoms: _69  and  _70
REMARK   31  A    between atoms: _69  and  _72
REMARK   32  A    between atoms: _74  and  _76
REMARK   33  A    between atoms: _76  and  _77
REMARK   34  A    between atoms: _76  and  _79
REMARK   35  A    between atoms: _79  and  _80
REMARK   36  A    between atoms: _83  and  _85
REMARK   37  A    between atoms: _85  and  _86
REMARK   38  A    between atoms: _85  and  _88
REMARK   39  A    between atoms: _88  and  _89
REMARK   40  A    between atoms: _95  and  _97
REMARK   41  A    between atoms: _97  and  _98
REMARK   42  A    between atoms: _97  and  _100
REMARK   43  A    between atoms: _100  and  _101
REMARK   44  A    between atoms: _101  and  _102
REMARK   45  A    between atoms: _102  and  _103
REMARK   46  A    between atoms: _113  and  _114
REMARK   47  A    between atoms: _119  and  _121
REMARK   48  A    between atoms: _121  and  _122
REMARK   49  A    between atoms: _121  and  _124
REMARK   50  A    between atoms: _124  and  _125
REMARK   51  A    between atoms: _125  and  _126
REMARK   52  A    between atoms: _129  and  _131
REMARK   53  A    between atoms: _131  and  _132
REMARK   54  A    between atoms: _135  and  _137
REMARK   55  A    between atoms: _137  and  _138
REMARK   56  A    between atoms: _137  and  _140
REMARK   57  A    between atoms: _143  and  _145
REMARK   58  A    between atoms: _145  and  _146
REMARK   59  A    between atoms: _145  and  _148
REMARK   60  A    between atoms: _148  and  _149
REMARK   61  A    between atoms: _155  and  _157
REMARK   62  A    between atoms: _157  and  _158
REMARK   63  A    between atoms: _157  and  _160
REMARK   64  A    between atoms: _160  and  _161
REMARK   65  A    between atoms: _164  and  _166
REMARK   66  A    between atoms: _166  and  _167
REMARK   67  A    between atoms: _166  and  _169
REMARK   68  A    between atoms: _169  and  _170
REMARK   69  A    between atoms: _176  and  _178
REMARK   70  A    between atoms: _178  and  _179
REMARK   71  A    between atoms: _178  and  _181
REMARK   72  A    between atoms: _181  and  _182
REMARK   73  A    between atoms: _185  and  _187
REMARK   74  A    between atoms: _187  and  _188
REMARK   75  A    between atoms: _187  and  _190
REMARK   76  A    between atoms: _190  and  _191
REMARK   77  A    between atoms: _191  and  _192
REMARK   78  A    between atoms: _197  and  _199
REMARK   79  A    between atoms: _199  and  _200
REMARK   80  A    between atoms: _199  and  _202
REMARK   81  A    between atoms: _202  and  _203
REMARK   82  A    between atoms: _208  and  _210
REMARK   83  A    between atoms: _210  and  _211
REMARK   84  A    between atoms: _210  and  _213
REMARK   85  A    between atoms: _213  and  _214
REMARK   86  A    between atoms: _217  and  _219
REMARK   87  A    between atoms: _219  and  _220
REMARK   88  A    between atoms: _219  and  _222
REMARK   89  A    between atoms: _222  and  _223
REMARK   90  A    between atoms: _228  and  _230
REMARK   91  A    between atoms: _230  and  _231
REMARK   92  A    between atoms: _230  and  _233
REMARK   93  A    between atoms: _233  and  _234
REMARK   94  A    between atoms: _237  and  _239
REMARK   95  A    between atoms: _239  and  _240
REMARK   96  A    between atoms: _239  and  _242
REMARK   97  A    between atoms: _245  and  _247
REMARK   98  A    between atoms: _247  and  _248
REMARK   99  A    between atoms: _247  and  _250
REMARK  100  A    between atoms: _250  and  _251
REMARK  101  A    between atoms: _257  and  _259
REMARK  102  A    between atoms: _259  and  _260
REMARK  103  A    between atoms: _259  and  _262
REMARK  104  A    between atoms: _265  and  _267
REMARK  105  A    between atoms: _267  and  _268
REMARK  106  A    between atoms: _267  and  _270
REMARK  107  A    between atoms: _273  and  _275
REMARK  108  A    between atoms: _275  and  _276
REMARK  109  A    between atoms: _278  and  _280
REMARK  110  A    between atoms: _280  and  _281
REMARK  111  A    between atoms: _280  and  _283
REMARK  112  A    between atoms: _283  and  _284
REMARK  113  A    between atoms: _287  and  _289
REMARK  114  A    between atoms: _289  and  _290
REMARK  115  A    between atoms: _289  and  _292
REMARK  116  A    between atoms: _292  and  _293
REMARK  117  A    between atoms: _295  and  _297
REMARK  118  A    between atoms: _297  and  _298
REMARK  119  A    between atoms: _297  and  _300
REMARK  120  A    between atoms: _300  and  _301
REMARK  121  A    between atoms: _304  and  _306
REMARK  122  A    between atoms: _306  and  _307
REMARK  123  A    between atoms: _310  and  _312
REMARK  124  A    between atoms: _312  and  _313
REMARK  125  A    between atoms: _312  and  _315
REMARK  126  A    between atoms: _318  and  _320
REMARK  127  A    between atoms: _320  and  _321
REMARK  128  A    between atoms: _320  and  _323
REMARK  129  A    between atoms: _323  and  _324
REMARK  130  A    between atoms: _329  and  _330
REMARK  131  A    between atoms: _332  and  _334
REMARK  132  A    between atoms: _334  and  _335
REMARK  133  A    between atoms: _334  and  _337
REMARK  134  A    between atoms: _337  and  _338
REMARK  135  A    between atoms: _344  and  _346
REMARK  136  A    between atoms: _346  and  _347
REMARK  137  A    between atoms: _346  and  _349
REMARK  138  A    between atoms: _349  and  _350
REMARK  139  A    between atoms: _353  and  _355
REMARK  140  A    between atoms: _355  and  _356
REMARK  141  A    between atoms: _355  and  _358
REMARK  142  A    between atoms: _360  and  _362
REMARK  143  A    between atoms: _362  and  _363
REMARK  144  A    between atoms: _362  and  _365
REMARK  145  A    between atoms: _365  and  _366
REMARK  146  A    between atoms: _371  and  _373
REMARK  147  A    between atoms: _373  and  _374
REMARK  148  A    between atoms: _373  and  _376
REMARK  149  A    between atoms: _376  and  _377
REMARK  150  A    between atoms: _380  and  _382
REMARK  151  A    between atoms: _382  and  _383
REMARK  152  A    between atoms: _382  and  _385
REMARK  153  A    between atoms: _385  and  _386
REMARK  154  A    between atoms: _386  and  _387
REMARK  155  A    between atoms: _390  and  _392
REMARK  156  A    between atoms: _392  and  _393
REMARK  157  A    between atoms: _392  and  _395
REMARK  158  A    between atoms: _395  and  _396
REMARK  159  A    between atoms: _399  and  _401
REMARK  160  A    between atoms: _401  and  _402
REMARK  161  A    between atoms: _401  and  _404
REMARK  162  A    between atoms: _407  and  _409
REMARK  163  A    between atoms: _409  and  _410
REMARK  164  A    between atoms: _412  and  _414
REMARK  165  A    between atoms: _414  and  _415
REMARK  166  A    between atoms: _414  and  _417
REMARK  167  A    between atoms: _420  and  _422
REMARK  168  A    between atoms: _422  and  _423
REMARK  169  A    between atoms: _422  and  _425
REMARK  170  A    between atoms: _425  and  _426
REMARK  171  A    between atoms: _431  and  _433
REMARK  172  A    between atoms: _433  and  _434
REMARK  173  A    between atoms: _433  and  _436
REMARK  174  A    between atoms: _436  and  _437
REMARK  175  A    between atoms: _437  and  _438
REMARK  176  A    between atoms: _443  and  _445
REMARK  177  A    between atoms: _445  and  _446
REMARK  178  A    between atoms: _445  and  _448
REMARK  179  A    between atoms: _448  and  _449
REMARK  180  A    between atoms: _454  and  _455
REMARK  181  A    between atoms: _457  and  _459
REMARK  182  A    between atoms: _459  and  _460
REMARK  183  A    between atoms: _459  and  _462
REMARK  184  A    between atoms: _462  and  _463
REMARK  185  A    between atoms: _465  and  _467
REMARK  186  A    between atoms: _467  and  _468
REMARK  187  A    between atoms: _467  and  _470
REMARK  188  A    between atoms: _470  and  _471
REMARK  189  A    between atoms: _474  and  _476
REMARK  190  A    between atoms: _476  and  _477
REMARK  191  A    between atoms: _476  and  _479
REMARK  192  A    between atoms: _479  and  _480
REMARK  193  A    between atoms: _480  and  _481
REMARK  194  A    between atoms: _484  and  _486
REMARK  195  A    between atoms: _486  and  _487
REMARK  196  A    between atoms: _486  and  _489
REMARK  197  A    between atoms: _489  and  _490
REMARK  198  A    between atoms: _496  and  _498
REMARK  199  A    between atoms: _498  and  _499
REMARK                            x       y       z     vdW  Elec       q    Type
REMARK                         _______ _______ _______ _____ _____    ______ ____
ROOT
ATOM      1  O   HOH     1      -7.412  30.171 -48.779  0.00  0.00    +0.000 OA
ENDROOT
TORSDOF 0
REMARK  Name = ../refined-set-2016/1szd/1szd_pocket.pdb
REMARK  199 active torsions:
REMARK  status: ('A' for Active; 'I' for Inactive)
REMARK    1  A    between atoms: _1  and  _3
REMARK    2  A    between atoms: _3  and  _4
REMARK    3  A    between atoms: _3  and  _6
REMARK    4  A    between atoms: _9  and  _11
REMARK    5  A    between atoms: _11  and  _12
REMARK    6  A    between atoms: _11  and  _14
REMARK    7  A    between atoms: _17  and  _19
REMARK    8  A    between atoms: _19  and  _20
REMARK    9  A    between atoms: _22  and  _24
REMARK   10  A    between atoms: _24  and  _25
REMARK   11  A    between atoms: _28  and  _30
REMARK   12  A    between atoms: _30  and  _31
REMARK   13  A    between atoms: _33  and  _35
REMARK   14  A    between atoms: _35  and  _36
REMARK   15  A    between atoms: _35  and  _38
REMARK   16  A    between atoms: _38  and  _39
REMARK   17  A    between atoms: _42  and  _44
REMARK   18  A    between atoms: _44  and  _45
REMARK   19  A    between atoms: _44  and  _47
REMARK   20  A    between atoms: _47  and  _48
REMARK   21  A    between atoms: _50  and  _52
REMARK   22  A    between atoms: _52  and  _53
REMARK   23  A    between atoms: _52  and  _55
REMARK   24  A    between atoms: _55  and  _56
REMARK   25  A    between atoms: _59  and  _61
REMARK   26  A    between atoms: _61  and  _62
REMARK   27  A    between atoms: _61  and  _64
REMARK   28  A    between atoms: _64  and  _65
REMARK   29  A    between atoms: _67  and  _69
REMARK   30  A    between atoms: _69  and  _70
REMARK   31  A    between atoms: _69  and  _72
REMARK   32  A    between atoms: _74  and  _76
REMARK   33  A    between atoms: _76  and  _77
REMARK   34  A    between atoms: _76  and  _79
REMARK   35  A    between atoms: _79  and  _80
REMARK   36  A    between atoms: _83  and  _85
REMARK   37  A    between atoms: _85  and  _86
REMARK   38  A    between atoms: _85  and  _88
REMARK   39  A    between atoms: _88  and  _89
REMARK   40  A    between atoms: _95  and  _97
REMARK   41  A    between atoms: _97  and  _98
REMARK   42  A    between atoms: _97  and  _100
REMARK   43  A    between atoms: _100  and  _101
REMARK   44  A    between atoms: _101  and  _102
REMARK   45  A    between atoms: _102  and  _103
REMARK   46  A    between atoms: _113  and  _114
REMARK   47  A    between atoms: _119  and  _121
REMARK   48  A    between atoms: _121  and  _122
REMARK   49  A    between atoms: _121  and  _124
REMARK   50  A    between atoms: _124  and  _125
REMARK   51  A    between atoms: _125  and  _126
REMARK   52  A    between atoms: _129  and  _131
REMARK   53  A    between atoms: _131  and  _132
REMARK   54  A    between atoms: _135  and  _137
REMARK   55  A    between atoms: _137  and  _138
REMARK   56  A    between atoms: _137  and  _140
REMARK   57  A    between atoms: _143  and  _145
REMARK   58  A    between atoms: _145  and  _146
REMARK   59  A    between atoms: _145  and  _148
REMARK   60  A    between atoms: _148  and  _149
REMARK   61  A    between atoms: _155  and  _157
REMARK   62  A    between atoms: _157  and  _158
REMARK   63  A    between atoms: _157  and  _160
REMARK   64  A    between atoms: _160  and  _161
REMARK   65  A    between atoms: _164  and  _166
REMARK   66  A    between atoms: _166  and  _167
REMARK   67  A    between atoms: _166  and  _169
REMARK   68  A    between atoms: _169  and  _170
REMARK   69  A    between atoms: _176  and  _178
REMARK   70  A    between atoms: _178  and  _179
REMARK   71  A    between atoms: _178  and  _181
REMARK   72  A    between atoms: _181  and  _182
REMARK   73  A    between atoms: _185  and  _187
REMARK   74  A    between atoms: _187  and  _188
REMARK   75  A    between atoms: _187  and  _190
REMARK   76  A    between atoms: _190  and  _191
REMARK   77  A    between atoms: _191  and  _192
REMARK   78  A    between atoms: _197  and  _199
REMARK   79  A    between atoms: _199  and  _200
REMARK   80  A    between atoms: _199  and  _202
REMARK   81  A    between atoms: _202  and  _203
REMARK   82  A    between atoms: _208  and  _210
REMARK   83  A    between atoms: _210  and  _211
REMARK   84  A    between atoms: _210  and  _213
REMARK   85  A    between atoms: _213  and  _214
REMARK   86  A    between atoms: _217  and  _219
REMARK   87  A    between atoms: _219  and  _220
REMARK   88  A    between atoms: _219  and  _222
REMARK   89  A    between atoms: _222  and  _223
REMARK   90  A    between atoms: _228  and  _230
REMARK   91  A    between atoms: _230  and  _231
REMARK   92  A    between atoms: _230  and  _233
REMARK   93  A    between atoms: _233  and  _234
REMARK   94  A    between atoms: _237  and  _239
REMARK   95  A    between atoms: _239  and  _240
REMARK   96  A    between atoms: _239  and  _242
REMARK   97  A    between atoms: _245  and  _247
REMARK   98  A    between atoms: _247  and  _248
REMARK   99  A    between atoms: _247  and  _250
REMARK  100  A    between atoms: _250  and  _251
REMARK  101  A    between atoms: _257  and  _259
REMARK  102  A    between atoms: _259  and  _260
REMARK  103  A    between atoms: _259  and  _262
REMARK  104  A    between atoms: _265  and  _267
REMARK  105  A    between atoms: _267  and  _268
REMARK  106  A    between atoms: _267  and  _270
REMARK  107  A    between atoms: _273  and  _275
REMARK  108  A    between atoms: _275  and  _276
REMARK  109  A    between atoms: _278  and  _280
REMARK  110  A    between atoms: _280  and  _281
REMARK  111  A    between atoms: _280  and  _283
REMARK  112  A    between atoms: _283  and  _284
REMARK  113  A    between atoms: _287  and  _289
REMARK  114  A    between atoms: _289  and  _290
REMARK  115  A    between atoms: _289  and  _292
REMARK  116  A    between atoms: _292  and  _293
REMARK  117  A    between atoms: _295  and  _297
REMARK  118  A    between atoms: _297  and  _298
REMARK  119  A    between atoms: _297  and  _300
REMARK  120  A    between atoms: _300  and  _301
REMARK  121  A    between atoms: _304  and  _306
REMARK  122  A    between atoms: _306  and  _307
REMARK  123  A    between atoms: _310  and  _312
REMARK  124  A    between atoms: _312  and  _313
REMARK  125  A    between atoms: _312  and  _315
REMARK  126  A    between atoms: _318  and  _320
REMARK  127  A    between atoms: _320  and  _321
REMARK  128  A    between atoms: _320  and  _323
REMARK  129  A    between atoms: _323  and  _324
REMARK  130  A    between atoms: _329  and  _330
REMARK  131  A    between atoms: _332  and  _334
REMARK  132  A    between atoms: _334  and  _335
REMARK  133  A    between atoms: _334  and  _337
REMARK  134  A    between atoms: _337  and  _338
REMARK  135  A    between atoms: _344  and  _346
REMARK  136  A    between atoms: _346  and  _347
REMARK  137  A    between atoms: _346  and  _349
REMARK  138  A    between atoms: _349  and  _350
REMARK  139  A    between atoms: _353  and  _355
REMARK  140  A    between atoms: _355  and  _356
REMARK  141  A    between atoms: _355  and  _358
REMARK  142  A    between atoms: _360  and  _362
REMARK  143  A    between atoms: _362  and  _363
REMARK  144  A    between atoms: _362  and  _365
REMARK  145  A    between atoms: _365  and  _366
REMARK  146  A    between atoms: _371  and  _373
REMARK  147  A    between atoms: _373  and  _374
REMARK  148  A    between atoms: _373  and  _376
REMARK  149  A    between atoms: _376  and  _377
REMARK  150  A    between atoms: _380  and  _382
REMARK  151  A    between atoms: _382  and  _383
REMARK  152  A    between atoms: _382  and  _385
REMARK  153  A    between atoms: _385  and  _386
REMARK  154  A    between atoms: _386  and  _387
REMARK  155  A    between atoms: _390  and  _392
REMARK  156  A    between atoms: _392  and  _393
REMARK  157  A    between atoms: _392  and  _395
REMARK  158  A    between atoms: _395  and  _396
REMARK  159  A    between atoms: _399  and  _401
REMARK  160  A    between atoms: _401  and  _402
REMARK  161  A    between atoms: _401  and  _404
REMARK  162  A    between atoms: _407  and  _409
REMARK  163  A    between atoms: _409  and  _410
REMARK  164  A    between atoms: _412  and  _414
REMARK  165  A    between atoms: _414  and  _415
REMARK  166  A    between atoms: _414  and  _417
REMARK  167  A    between atoms: _420  and  _422
REMARK  168  A    between atoms: _422  and  _423
REMARK  169  A    between atoms: _422  and  _425
REMARK  170  A    between atoms: _425  and  _426
REMARK  171  A    between atoms: _431  and  _433
REMARK  172  A    between atoms: _433  and  _434
REMARK  173  A    between atoms: _433  and  _436
REMARK  174  A    between atoms: _436  and  _437
REMARK  175  A    between atoms: _437  and  _438
REMARK  176  A    between atoms: _443  and  _445
REMARK  177  A    between atoms: _445  and  _446
REMARK  178  A    between atoms: _445  and  _448
REMARK  179  A    between atoms: _448  and  _449
REMARK  180  A    between atoms: _454  and  _455
REMARK  181  A    between atoms: _457  and  _459
REMARK  182  A    between atoms: _459  and  _460
REMARK  183  A    between atoms: _459  and  _462
REMARK  184  A    between atoms: _462  and  _463
REMARK  185  A    between atoms: _465  and  _467
REMARK  186  A    between atoms: _467  and  _468
REMARK  187  A    between atoms: _467  and  _470
REMARK  188  A    between atoms: _470  and  _471
REMARK  189  A    between atoms: _474  and  _476
REMARK  190  A    between atoms: _476  and  _477
REMARK  191  A    between atoms: _476  and  _479
REMARK  192  A    between atoms: _479  and  _480
REMARK  193  A    between atoms: _480  and  _481
REMARK  194  A    between atoms: _484  and  _486
REMARK  195  A    between atoms: _486  and  _487
REMARK  196  A    between atoms: _486  and  _489
REMARK  197  A    between atoms: _489  and  _490
REMARK  198  A    between atoms: _496  and  _498
REMARK  199  A    between atoms: _498  and  _499
REMARK                            x       y       z     vdW  Elec       q    Type
REMARK                         _______ _______ _______ _____ _____    ______ ____
ROOT
ATOM      1  O   HOH     1     -17.682  25.574 -36.747  0.00  0.00    +0.000 OA
ENDROOT
TORSDOF 0
REMARK  Name = ../refined-set-2016/1szd/1szd_pocket.pdb
REMARK  199 active torsions:
REMARK  status: ('A' for Active; 'I' for Inactive)
REMARK    1  A    between atoms: _1  and  _3
REMARK    2  A    between atoms: _3  and  _4
REMARK    3  A    between atoms: _3  and  _6
REMARK    4  A    between atoms: _9  and  _11
REMARK    5  A    between atoms: _11  and  _12
REMARK    6  A    between atoms: _11  and  _14
REMARK    7  A    between atoms: _17  and  _19
REMARK    8  A    between atoms: _19  and  _20
REMARK    9  A    between atoms: _22  and  _24
REMARK   10  A    between atoms: _24  and  _25
REMARK   11  A    between atoms: _28  and  _30
REMARK   12  A    between atoms: _30  and  _31
REMARK   13  A    between atoms: _33  and  _35
REMARK   14  A    between atoms: _35  and  _36
REMARK   15  A    between atoms: _35  and  _38
REMARK   16  A    between atoms: _38  and  _39
REMARK   17  A    between atoms: _42  and  _44
REMARK   18  A    between atoms: _44  and  _45
REMARK   19  A    between atoms: _44  and  _47
REMARK   20  A    between atoms: _47  and  _48
REMARK   21  A    between atoms: _50  and  _52
REMARK   22  A    between atoms: _52  and  _53
REMARK   23  A    between atoms: _52  and  _55
REMARK   24  A    between atoms: _55  and  _56
REMARK   25  A    between atoms: _59  and  _61
REMARK   26  A    between atoms: _61  and  _62
REMARK   27  A    between atoms: _61  and  _64
REMARK   28  A    between atoms: _64  and  _65
REMARK   29  A    between atoms: _67  and  _69
REMARK   30  A    between atoms: _69  and  _70
REMARK   31  A    between atoms: _69  and  _72
REMARK   32  A    between atoms: _74  and  _76
REMARK   33  A    between atoms: _76  and  _77
REMARK   34  A    between atoms: _76  and  _79
REMARK   35  A    between atoms: _79  and  _80
REMARK   36  A    between atoms: _83  and  _85
REMARK   37  A    between atoms: _85  and  _86
REMARK   38  A    between atoms: _85  and  _88
REMARK   39  A    between atoms: _88  and  _89
REMARK   40  A    between atoms: _95  and  _97
REMARK   41  A    between atoms: _97  and  _98
REMARK   42  A    between atoms: _97  and  _100
REMARK   43  A    between atoms: _100  and  _101
REMARK   44  A    between atoms: _101  and  _102
REMARK   45  A    between atoms: _102  and  _103
REMARK   46  A    between atoms: _113  and  _114
REMARK   47  A    between atoms: _119  and  _121
REMARK   48  A    between atoms: _121  and  _122
REMARK   49  A    between atoms: _121  and  _124
REMARK   50  A    between atoms: _124  and  _125
REMARK   51  A    between atoms: _125  and  _126
REMARK   52  A    between atoms: _129  and  _131
REMARK   53  A    between atoms: _131  and  _132
REMARK   54  A    between atoms: _135  and  _137
REMARK   55  A    between atoms: _137  and  _138
REMARK   56  A    between atoms: _137  and  _140
REMARK   57  A    between atoms: _143  and  _145
REMARK   58  A    between atoms: _145  and  _146
REMARK   59  A    between atoms: _145  and  _148
REMARK   60  A    between atoms: _148  and  _149
REMARK   61  A    between atoms: _155  and  _157
REMARK   62  A    between atoms: _157  and  _158
REMARK   63  A    between atoms: _157  and  _160
REMARK   64  A    between atoms: _160  and  _161
REMARK   65  A    between atoms: _164  and  _166
REMARK   66  A    between atoms: _166  and  _167
REMARK   67  A    between atoms: _166  and  _169
REMARK   68  A    between atoms: _169  and  _170
REMARK   69  A    between atoms: _176  and  _178
REMARK   70  A    between atoms: _178  and  _179
REMARK   71  A    between atoms: _178  and  _181
REMARK   72  A    between atoms: _181  and  _182
REMARK   73  A    between atoms: _185  and  _187
REMARK   74  A    between atoms: _187  and  _188
REMARK   75  A    between atoms: _187  and  _190
REMARK   76  A    between atoms: _190  and  _191
REMARK   77  A    between atoms: _191  and  _192
REMARK   78  A    between atoms: _197  and  _199
REMARK   79  A    between atoms: _199  and  _200
REMARK   80  A    between atoms: _199  and  _202
REMARK   81  A    between atoms: _202  and  _203
REMARK   82  A    between atoms: _208  and  _210
REMARK   83  A    between atoms: _210  and  _211
REMARK   84  A    between atoms: _210  and  _213
REMARK   85  A    between atoms: _213  and  _214
REMARK   86  A    between atoms: _217  and  _219
REMARK   87  A    between atoms: _219  and  _220
REMARK   88  A    between atoms: _219  and  _222
REMARK   89  A    between atoms: _222  and  _223
REMARK   90  A    between atoms: _228  and  _230
REMARK   91  A    between atoms: _230  and  _231
REMARK   92  A    between atoms: _230  and  _233
REMARK   93  A    between atoms: _233  and  _234
REMARK   94  A    between atoms: _237  and  _239
REMARK   95  A    between atoms: _239  and  _240
REMARK   96  A    between atoms: _239  and  _242
REMARK   97  A    between atoms: _245  and  _247
REMARK   98  A    between atoms: _247  and  _248
REMARK   99  A    between atoms: _247  and  _250
REMARK  100  A    between atoms: _250  and  _251
REMARK  101  A    between atoms: _257  and  _259
REMARK  102  A    between atoms: _259  and  _260
REMARK  103  A    between atoms: _259  and  _262
REMARK  104  A    between atoms: _265  and  _267
REMARK  105  A    between atoms: _267  and  _268
REMARK  106  A    between atoms: _267  and  _270
REMARK  107  A    between atoms: _273  and  _275
REMARK  108  A    between atoms: _275  and  _276
REMARK  109  A    between atoms: _278  and  _280
REMARK  110  A    between atoms: _280  and  _281
REMARK  111  A    between atoms: _280  and  _283
REMARK  112  A    between atoms: _283  and  _284
REMARK  113  A    between atoms: _287  and  _289
REMARK  114  A    between atoms: _289  and  _290
REMARK  115  A    between atoms: _289  and  _292
REMARK  116  A    between atoms: _292  and  _293
REMARK  117  A    between atoms: _295  and  _297
REMARK  118  A    between atoms: _297  and  _298
REMARK  119  A    between atoms: _297  and  _300
REMARK  120  A    between atoms: _300  and  _301
REMARK  121  A    between atoms: _304  and  _306
REMARK  122  A    between atoms: _306  and  _307
REMARK  123  A    between atoms: _310  and  _312
REMARK  124  A    between atoms: _312  and  _313
REMARK  125  A    between atoms: _312  and  _315
REMARK  126  A    between atoms: _318  and  _320
REMARK  127  A    between atoms: _320  and  _321
REMARK  128  A    between atoms: _320  and  _323
REMARK  129  A    between atoms: _323  and  _324
REMARK  130  A    between atoms: _329  and  _330
REMARK  131  A    between atoms: _332  and  _334
REMARK  132  A    between atoms: _334  and  _335
REMARK  133  A    between atoms: _334  and  _337
REMARK  134  A    between atoms: _337  and  _338
REMARK  135  A    between atoms: _344  and  _346
REMARK  136  A    between atoms: _346  and  _347
REMARK  137  A    between atoms: _346  and  _349
REMARK  138  A    between atoms: _349  and  _350
REMARK  139  A    between atoms: _353  and  _355
REMARK  140  A    between atoms: _355  and  _356
REMARK  141  A    between atoms: _355  and  _358
REMARK  142  A    between atoms: _360  and  _362
REMARK  143  A    between atoms: _362  and  _363
REMARK  144  A    between atoms: _362  and  _365
REMARK  145  A    between atoms: _365  and  _366
REMARK  146  A    between atoms: _371  and  _373
REMARK  147  A    between atoms: _373  and  _374
REMARK  148  A    between atoms: _373  and  _376
REMARK  149  A    between atoms: _376  and  _377
REMARK  150  A    between atoms: _380  and  _382
REMARK  151  A    between atoms: _382  and  _383
REMARK  152  A    between atoms: _382  and  _385
REMARK  153  A    between atoms: _385  and  _386
REMARK  154  A    between atoms: _386  and  _387
REMARK  155  A    between atoms: _390  and  _392
REMARK  156  A    between atoms: _392  and  _393
REMARK  157  A    between atoms: _392  and  _395
REMARK  158  A    between atoms: _395  and  _396
REMARK  159  A    between atoms: _399  and  _401
REMARK  160  A    between atoms: _401  and  _402
REMARK  161  A    between atoms: _401  and  _404
REMARK  162  A    between atoms: _407  and  _409
REMARK  163  A    between atoms: _409  and  _410
REMARK  164  A    between atoms: _412  and  _414
REMARK  165  A    between atoms: _414  and  _415
REMARK  166  A    between atoms: _414  and  _417
REMARK  167  A    between atoms: _420  and  _422
REMARK  168  A    between atoms: _422  and  _423
REMARK  169  A    between atoms: _422  and  _425
REMARK  170  A    between atoms: _425  and  _426
REMARK  171  A    between atoms: _431  and  _433
REMARK  172  A    between atoms: _433  and  _434
REMARK  173  A    between atoms: _433  and  _436
REMARK  174  A    between atoms: _436  and  _437
REMARK  175  A    between atoms: _437  and  _438
REMARK  176  A    between atoms: _443  and  _445
REMARK  177  A    between atoms: _445  and  _446
REMARK  178  A    between atoms: _445  and  _448
REMARK  179  A    between atoms: _448  and  _449
REMARK  180  A    between atoms: _454  and  _455
REMARK  181  A    between atoms: _457  and  _459
REMARK  182  A    between atoms: _459  and  _460
REMARK  183  A    between atoms: _459  and  _462
REMARK  184  A    between atoms: _462  and  _463
REMARK  185  A    between atoms: _465  and  _467
REMARK  186  A    between atoms: _467  and  _468
REMARK  187  A    between atoms: _467  and  _470
REMARK  188  A    between atoms: _470  and  _471
REMARK  189  A    between atoms: _474  and  _476
REMARK  190  A    between atoms: _476  and  _477
REMARK  191  A    between atoms: _476  and  _479
REMARK  192  A    between atoms: _479  and  _480
REMARK  193  A    between atoms: _480  and  _481
REMARK  194  A    between atoms: _484  and  _486
REMARK  195  A    between atoms: _486  and  _487
REMARK  196  A    between atoms: _486  and  _489
REMARK  197  A    between atoms: _489  and  _490
REMARK  198  A    between atoms: _496  and  _498
REMARK  199  A    between atoms: _498  and  _499
REMARK                            x       y       z     vdW  Elec       q    Type
REMARK                         _______ _______ _______ _____ _____    ______ ____
ROOT
ATOM      1  O   HOH     1     -10.278  44.163 -43.956  0.00  0.00    +0.000 OA
ENDROOT
TORSDOF 0
REMARK  Name = ../refined-set-2016/1szd/1szd_pocket.pdb
REMARK  199 active torsions:
REMARK  status: ('A' for Active; 'I' for Inactive)
REMARK    1  A    between atoms: _1  and  _3
REMARK    2  A    between atoms: _3  and  _4
REMARK    3  A    between atoms: _3  and  _6
REMARK    4  A    between atoms: _9  and  _11
REMARK    5  A    between atoms: _11  and  _12
REMARK    6  A    between atoms: _11  and  _14
REMARK    7  A    between atoms: _17  and  _19
REMARK    8  A    between atoms: _19  and  _20
REMARK    9  A    between atoms: _22  and  _24
REMARK   10  A    between atoms: _24  and  _25
REMARK   11  A    between atoms: _28  and  _30
REMARK   12  A    between atoms: _30  and  _31
REMARK   13  A    between atoms: _33  and  _35
REMARK   14  A    between atoms: _35  and  _36
REMARK   15  A    between atoms: _35  and  _38
REMARK   16  A    between atoms: _38  and  _39
REMARK   17  A    between atoms: _42  and  _44
REMARK   18  A    between atoms: _44  and  _45
REMARK   19  A    between atoms: _44  and  _47
REMARK   20  A    between atoms: _47  and  _48
REMARK   21  A    between atoms: _50  and  _52
REMARK   22  A    between atoms: _52  and  _53
REMARK   23  A    between atoms: _52  and  _55
REMARK   24  A    between atoms: _55  and  _56
REMARK   25  A    between atoms: _59  and  _61
REMARK   26  A    between atoms: _61  and  _62
REMARK   27  A    between atoms: _61  and  _64
REMARK   28  A    between atoms: _64  and  _65
REMARK   29  A    between atoms: _67  and  _69
REMARK   30  A    between atoms: _69  and  _70
REMARK   31  A    between atoms: _69  and  _72
REMARK   32  A    between atoms: _74  and  _76
REMARK   33  A    between atoms: _76  and  _77
REMARK   34  A    between atoms: _76  and  _79
REMARK   35  A    between atoms: _79  and  _80
REMARK   36  A    between atoms: _83  and  _85
REMARK   37  A    between atoms: _85  and  _86
REMARK   38  A    between atoms: _85  and  _88
REMARK   39  A    between atoms: _88  and  _89
REMARK   40  A    between atoms: _95  and  _97
REMARK   41  A    between atoms: _97  and  _98
REMARK   42  A    between atoms: _97  and  _100
REMARK   43  A    between atoms: _100  and  _101
REMARK   44  A    between atoms: _101  and  _102
REMARK   45  A    between atoms: _102  and  _103
REMARK   46  A    between atoms: _113  and  _114
REMARK   47  A    between atoms: _119  and  _121
REMARK   48  A    between atoms: _121  and  _122
REMARK   49  A    between atoms: _121  and  _124
REMARK   50  A    between atoms: _124  and  _125
REMARK   51  A    between atoms: _125  and  _126
REMARK   52  A    between atoms: _129  and  _131
REMARK   53  A    between atoms: _131  and  _132
REMARK   54  A    between atoms: _135  and  _137
REMARK   55  A    between atoms: _137  and  _138
REMARK   56  A    between atoms: _137  and  _140
REMARK   57  A    between atoms: _143  and  _145
REMARK   58  A    between atoms: _145  and  _146
REMARK   59  A    between atoms: _145  and  _148
REMARK   60  A    between atoms: _148  and  _149
REMARK   61  A    between atoms: _155  and  _157
REMARK   62  A    between atoms: _157  and  _158
REMARK   63  A    between atoms: _157  and  _160
REMARK   64  A    between atoms: _160  and  _161
REMARK   65  A    between atoms: _164  and  _166
REMARK   66  A    between atoms: _166  and  _167
REMARK   67  A    between atoms: _166  and  _169
REMARK   68  A    between atoms: _169  and  _170
REMARK   69  A    between atoms: _176  and  _178
REMARK   70  A    between atoms: _178  and  _179
REMARK   71  A    between atoms: _178  and  _181
REMARK   72  A    between atoms: _181  and  _182
REMARK   73  A    between atoms: _185  and  _187
REMARK   74  A    between atoms: _187  and  _188
REMARK   75  A    between atoms: _187  and  _190
REMARK   76  A    between atoms: _190  and  _191
REMARK   77  A    between atoms: _191  and  _192
REMARK   78  A    between atoms: _197  and  _199
REMARK   79  A    between atoms: _199  and  _200
REMARK   80  A    between atoms: _199  and  _202
REMARK   81  A    between atoms: _202  and  _203
REMARK   82  A    between atoms: _208  and  _210
REMARK   83  A    between atoms: _210  and  _211
REMARK   84  A    between atoms: _210  and  _213
REMARK   85  A    between atoms: _213  and  _214
REMARK   86  A    between atoms: _217  and  _219
REMARK   87  A    between atoms: _219  and  _220
REMARK   88  A    between atoms: _219  and  _222
REMARK   89  A    between atoms: _222  and  _223
REMARK   90  A    between atoms: _228  and  _230
REMARK   91  A    between atoms: _230  and  _231
REMARK   92  A    between atoms: _230  and  _233
REMARK   93  A    between atoms: _233  and  _234
REMARK   94  A    between atoms: _237  and  _239
REMARK   95  A    between atoms: _239  and  _240
REMARK   96  A    between atoms: _239  and  _242
REMARK   97  A    between atoms: _245  and  _247
REMARK   98  A    between atoms: _247  and  _248
REMARK   99  A    between atoms: _247  and  _250
REMARK  100  A    between atoms: _250  and  _251
REMARK  101  A    between atoms: _257  and  _259
REMARK  102  A    between atoms: _259  and  _260
REMARK  103  A    between atoms: _259  and  _262
REMARK  104  A    between atoms: _265  and  _267
REMARK  105  A    between atoms: _267  and  _268
REMARK  106  A    between atoms: _267  and  _270
REMARK  107  A    between atoms: _273  and  _275
REMARK  108  A    between atoms: _275  and  _276
REMARK  109  A    between atoms: _278  and  _280
REMARK  110  A    between atoms: _280  and  _281
REMARK  111  A    between atoms: _280  and  _283
REMARK  112  A    between atoms: _283  and  _284
REMARK  113  A    between atoms: _287  and  _289
REMARK  114  A    between atoms: _289  and  _290
REMARK  115  A    between atoms: _289  and  _292
REMARK  116  A    between atoms: _292  and  _293
REMARK  117  A    between atoms: _295  and  _297
REMARK  118  A    between atoms: _297  and  _298
REMARK  119  A    between atoms: _297  and  _300
REMARK  120  A    between atoms: _300  and  _301
REMARK  121  A    between atoms: _304  and  _306
REMARK  122  A    between atoms: _306  and  _307
REMARK  123  A    between atoms: _310  and  _312
REMARK  124  A    between atoms: _312  and  _313
REMARK  125  A    between atoms: _312  and  _315
REMARK  126  A    between atoms: _318  and  _320
REMARK  127  A    between atoms: _320  and  _321
REMARK  128  A    between atoms: _320  and  _323
REMARK  129  A    between atoms: _323  and  _324
REMARK  130  A    between atoms: _329  and  _330
REMARK  131  A    between atoms: _332  and  _334
REMARK  132  A    between atoms: _334  and  _335
REMARK  133  A    between atoms: _334  and  _337
REMARK  134  A    between atoms: _337  and  _338
REMARK  135  A    between atoms: _344  and  _346
REMARK  136  A    between atoms: _346  and  _347
REMARK  137  A    between atoms: _346  and  _349
REMARK  138  A    between atoms: _349  and  _350
REMARK  139  A    between atoms: _353  and  _355
REMARK  140  A    between atoms: _355  and  _356
REMARK  141  A    between atoms: _355  and  _358
REMARK  142  A    between atoms: _360  and  _362
REMARK  143  A    between atoms: _362  and  _363
REMARK  144  A    between atoms: _362  and  _365
REMARK  145  A    between atoms: _365  and  _366
REMARK  146  A    between atoms: _371  and  _373
REMARK  147  A    between atoms: _373  and  _374
REMARK  148  A    between atoms: _373  and  _376
REMARK  149  A    between atoms: _376  and  _377
REMARK  150  A    between atoms: _380  and  _382
REMARK  151  A    between atoms: _382  and  _383
REMARK  152  A    between atoms: _382  and  _385
REMARK  153  A    between atoms: _385  and  _386
REMARK  154  A    between atoms: _386  and  _387
REMARK  155  A    between atoms: _390  and  _392
REMARK  156  A    between atoms: _392  and  _393
REMARK  157  A    between atoms: _392  and  _395
REMARK  158  A    between atoms: _395  and  _396
REMARK  159  A    between atoms: _399  and  _401
REMARK  160  A    between atoms: _401  and  _402
REMARK  161  A    between atoms: _401  and  _404
REMARK  162  A    between atoms: _407  and  _409
REMARK  163  A    between atoms: _409  and  _410
REMARK  164  A    between atoms: _412  and  _414
REMARK  165  A    between atoms: _414  and  _415
REMARK  166  A    between atoms: _414  and  _417
REMARK  167  A    between atoms: _420  and  _422
REMARK  168  A    between atoms: _422  and  _423
REMARK  169  A    between atoms: _422  and  _425
REMARK  170  A    between atoms: _425  and  _426
REMARK  171  A    between atoms: _431  and  _433
REMARK  172  A    between atoms: _433  and  _434
REMARK  173  A    between atoms: _433  and  _436
REMARK  174  A    between atoms: _436  and  _437
REMARK  175  A    between atoms: _437  and  _438
REMARK  176  A    between atoms: _443  and  _445
REMARK  177  A    between atoms: _445  and  _446
REMARK  178  A    between atoms: _445  and  _448
REMARK  179  A    between atoms: _448  and  _449
REMARK  180  A    between atoms: _454  and  _455
REMARK  181  A    between atoms: _457  and  _459
REMARK  182  A    between atoms: _459  and  _460
REMARK  183  A    between atoms: _459  and  _462
REMARK  184  A    between atoms: _462  and  _463
REMARK  185  A    between atoms: _465  and  _467
REMARK  186  A    between atoms: _467  and  _468
REMARK  187  A    between atoms: _467  and  _470
REMARK  188  A    between atoms: _470  and  _471
REMARK  189  A    between atoms: _474  and  _476
REMARK  190  A    between atoms: _476  and  _477
REMARK  191  A    between atoms: _476  and  _479
REMARK  192  A    between atoms: _479  and  _480
REMARK  193  A    between atoms: _480  and  _481
REMARK  194  A    between atoms: _484  and  _486
REMARK  195  A    between atoms: _486  and  _487
REMARK  196  A    between atoms: _486  and  _489
REMARK  197  A    between atoms: _489  and  _490
REMARK  198  A    between atoms: _496  and  _498
REMARK  199  A    between atoms: _498  and  _499
REMARK                            x       y       z     vdW  Elec       q    Type
REMARK                         _______ _______ _______ _____ _____    ______ ____
ROOT
ATOM      1  O   HOH     1     -19.856  27.522 -36.839  0.00  0.00    +0.000 OA
ENDROOT
TORSDOF 0
REMARK  Name = ../refined-set-2016/1szd/1szd_pocket.pdb
REMARK  199 active torsions:
REMARK  status: ('A' for Active; 'I' for Inactive)
REMARK    1  A    between atoms: _1  and  _3
REMARK    2  A    between atoms: _3  and  _4
REMARK    3  A    between atoms: _3  and  _6
REMARK    4  A    between atoms: _9  and  _11
REMARK    5  A    between atoms: _11  and  _12
REMARK    6  A    between atoms: _11  and  _14
REMARK    7  A    between atoms: _17  and  _19
REMARK    8  A    between atoms: _19  and  _20
REMARK    9  A    between atoms: _22  and  _24
REMARK   10  A    between atoms: _24  and  _25
REMARK   11  A    between atoms: _28  and  _30
REMARK   12  A    between atoms: _30  and  _31
REMARK   13  A    between atoms: _33  and  _35
REMARK   14  A    between atoms: _35  and  _36
REMARK   15  A    between atoms: _35  and  _38
REMARK   16  A    between atoms: _38  and  _39
REMARK   17  A    between atoms: _42  and  _44
REMARK   18  A    between atoms: _44  and  _45
REMARK   19  A    between atoms: _44  and  _47
REMARK   20  A    between atoms: _47  and  _48
REMARK   21  A    between atoms: _50  and  _52
REMARK   22  A    between atoms: _52  and  _53
REMARK   23  A    between atoms: _52  and  _55
REMARK   24  A    between atoms: _55  and  _56
REMARK   25  A    between atoms: _59  and  _61
REMARK   26  A    between atoms: _61  and  _62
REMARK   27  A    between atoms: _61  and  _64
REMARK   28  A    between atoms: _64  and  _65
REMARK   29  A    between atoms: _67  and  _69
REMARK   30  A    between atoms: _69  and  _70
REMARK   31  A    between atoms: _69  and  _72
REMARK   32  A    between atoms: _74  and  _76
REMARK   33  A    between atoms: _76  and  _77
REMARK   34  A    between atoms: _76  and  _79
REMARK   35  A    between atoms: _79  and  _80
REMARK   36  A    between atoms: _83  and  _85
REMARK   37  A    between atoms: _85  and  _86
REMARK   38  A    between atoms: _85  and  _88
REMARK   39  A    between atoms: _88  and  _89
REMARK   40  A    between atoms: _95  and  _97
REMARK   41  A    between atoms: _97  and  _98
REMARK   42  A    between atoms: _97  and  _100
REMARK   43  A    between atoms: _100  and  _101
REMARK   44  A    between atoms: _101  and  _102
REMARK   45  A    between atoms: _102  and  _103
REMARK   46  A    between atoms: _113  and  _114
REMARK   47  A    between atoms: _119  and  _121
REMARK   48  A    between atoms: _121  and  _122
REMARK   49  A    between atoms: _121  and  _124
REMARK   50  A    between atoms: _124  and  _125
REMARK   51  A    between atoms: _125  and  _126
REMARK   52  A    between atoms: _129  and  _131
REMARK   53  A    between atoms: _131  and  _132
REMARK   54  A    between atoms: _135  and  _137
REMARK   55  A    between atoms: _137  and  _138
REMARK   56  A    between atoms: _137  and  _140
REMARK   57  A    between atoms: _143  and  _145
REMARK   58  A    between atoms: _145  and  _146
REMARK   59  A    between atoms: _145  and  _148
REMARK   60  A    between atoms: _148  and  _149
REMARK   61  A    between atoms: _155  and  _157
REMARK   62  A    between atoms: _157  and  _158
REMARK   63  A    between atoms: _157  and  _160
REMARK   64  A    between atoms: _160  and  _161
REMARK   65  A    between atoms: _164  and  _166
REMARK   66  A    between atoms: _166  and  _167
REMARK   67  A    between atoms: _166  and  _169
REMARK   68  A    between atoms: _169  and  _170
REMARK   69  A    between atoms: _176  and  _178
REMARK   70  A    between atoms: _178  and  _179
REMARK   71  A    between atoms: _178  and  _181
REMARK   72  A    between atoms: _181  and  _182
REMARK   73  A    between atoms: _185  and  _187
REMARK   74  A    between atoms: _187  and  _188
REMARK   75  A    between atoms: _187  and  _190
REMARK   76  A    between atoms: _190  and  _191
REMARK   77  A    between atoms: _191  and  _192
REMARK   78  A    between atoms: _197  and  _199
REMARK   79  A    between atoms: _199  and  _200
REMARK   80  A    between atoms: _199  and  _202
REMARK   81  A    between atoms: _202  and  _203
REMARK   82  A    between atoms: _208  and  _210
REMARK   83  A    between atoms: _210  and  _211
REMARK   84  A    between atoms: _210  and  _213
REMARK   85  A    between atoms: _213  and  _214
REMARK   86  A    between atoms: _217  and  _219
REMARK   87  A    between atoms: _219  and  _220
REMARK   88  A    between atoms: _219  and  _222
REMARK   89  A    between atoms: _222  and  _223
REMARK   90  A    between atoms: _228  and  _230
REMARK   91  A    between atoms: _230  and  _231
REMARK   92  A    between atoms: _230  and  _233
REMARK   93  A    between atoms: _233  and  _234
REMARK   94  A    between atoms: _237  and  _239
REMARK   95  A    between atoms: _239  and  _240
REMARK   96  A    between atoms: _239  and  _242
REMARK   97  A    between atoms: _245  and  _247
REMARK   98  A    between atoms: _247  and  _248
REMARK   99  A    between atoms: _247  and  _250
REMARK  100  A    between atoms: _250  and  _251
REMARK  101  A    between atoms: _257  and  _259
REMARK  102  A    between atoms: _259  and  _260
REMARK  103  A    between atoms: _259  and  _262
REMARK  104  A    between atoms: _265  and  _267
REMARK  105  A    between atoms: _267  and  _268
REMARK  106  A    between atoms: _267  and  _270
REMARK  107  A    between atoms: _273  and  _275
REMARK  108  A    between atoms: _275  and  _276
REMARK  109  A    between atoms: _278  and  _280
REMARK  110  A    between atoms: _280  and  _281
REMARK  111  A    between atoms: _280  and  _283
REMARK  112  A    between atoms: _283  and  _284
REMARK  113  A    between atoms: _287  and  _289
REMARK  114  A    between atoms: _289  and  _290
REMARK  115  A    between atoms: _289  and  _292
REMARK  116  A    between atoms: _292  and  _293
REMARK  117  A    between atoms: _295  and  _297
REMARK  118  A    between atoms: _297  and  _298
REMARK  119  A    between atoms: _297  and  _300
REMARK  120  A    between atoms: _300  and  _301
REMARK  121  A    between atoms: _304  and  _306
REMARK  122  A    between atoms: _306  and  _307
REMARK  123  A    between atoms: _310  and  _312
REMARK  124  A    between atoms: _312  and  _313
REMARK  125  A    between atoms: _312  and  _315
REMARK  126  A    between atoms: _318  and  _320
REMARK  127  A    between atoms: _320  and  _321
REMARK  128  A    between atoms: _320  and  _323
REMARK  129  A    between atoms: _323  and  _324
REMARK  130  A    between atoms: _329  and  _330
REMARK  131  A    between atoms: _332  and  _334
REMARK  132  A    between atoms: _334  and  _335
REMARK  133  A    between atoms: _334  and  _337
REMARK  134  A    between atoms: _337  and  _338
REMARK  135  A    between atoms: _344  and  _346
REMARK  136  A    between atoms: _346  and  _347
REMARK  137  A    between atoms: _346  and  _349
REMARK  138  A    between atoms: _349  and  _350
REMARK  139  A    between atoms: _353  and  _355
REMARK  140  A    between atoms: _355  and  _356
REMARK  141  A    between atoms: _355  and  _358
REMARK  142  A    between atoms: _360  and  _362
REMARK  143  A    between atoms: _362  and  _363
REMARK  144  A    between atoms: _362  and  _365
REMARK  145  A    between atoms: _365  and  _366
REMARK  146  A    between atoms: _371  and  _373
REMARK  147  A    between atoms: _373  and  _374
REMARK  148  A    between atoms: _373  and  _376
REMARK  149  A    between atoms: _376  and  _377
REMARK  150  A    between atoms: _380  and  _382
REMARK  151  A    between atoms: _382  and  _383
REMARK  152  A    between atoms: _382  and  _385
REMARK  153  A    between atoms: _385  and  _386
REMARK  154  A    between atoms: _386  and  _387
REMARK  155  A    between atoms: _390  and  _392
REMARK  156  A    between atoms: _392  and  _393
REMARK  157  A    between atoms: _392  and  _395
REMARK  158  A    between atoms: _395  and  _396
REMARK  159  A    between atoms: _399  and  _401
REMARK  160  A    between atoms: _401  and  _402
REMARK  161  A    between atoms: _401  and  _404
REMARK  162  A    between atoms: _407  and  _409
REMARK  163  A    between atoms: _409  and  _410
REMARK  164  A    between atoms: _412  and  _414
REMARK  165  A    between atoms: _414  and  _415
REMARK  166  A    between atoms: _414  and  _417
REMARK  167  A    between atoms: _420  and  _422
REMARK  168  A    between atoms: _422  and  _423
REMARK  169  A    between atoms: _422  and  _425
REMARK  170  A    between atoms: _425  and  _426
REMARK  171  A    between atoms: _431  and  _433
REMARK  172  A    between atoms: _433  and  _434
REMARK  173  A    between atoms: _433  and  _436
REMARK  174  A    between atoms: _436  and  _437
REMARK  175  A    between atoms: _437  and  _438
REMARK  176  A    between atoms: _443  and  _445
REMARK  177  A    between atoms: _445  and  _446
REMARK  178  A    between atoms: _445  and  _448
REMARK  179  A    between atoms: _448  and  _449
REMARK  180  A    between atoms: _454  and  _455
REMARK  181  A    between atoms: _457  and  _459
REMARK  182  A    between atoms: _459  and  _460
REMARK  183  A    between atoms: _459  and  _462
REMARK  184  A    between atoms: _462  and  _463
REMARK  185  A    between atoms: _465  and  _467
REMARK  186  A    between atoms: _467  and  _468
REMARK  187  A    between atoms: _467  and  _470
REMARK  188  A    between atoms: _470  and  _471
REMARK  189  A    between atoms: _474  and  _476
REMARK  190  A    between atoms: _476  and  _477
REMARK  191  A    between atoms: _476  and  _479
REMARK  192  A    between atoms: _479  and  _480
REMARK  193  A    between atoms: _480  and  _481
REMARK  194  A    between atoms: _484  and  _486
REMARK  195  A    between atoms: _486  and  _487
REMARK  196  A    between atoms: _486  and  _489
REMARK  197  A    between atoms: _489  and  _490
REMARK  198  A    between atoms: _496  and  _498
REMARK  199  A    between atoms: _498  and  _499
REMARK                            x       y       z     vdW  Elec       q    Type
REMARK                         _______ _______ _______ _____ _____    ______ ____
ROOT
ATOM      1  O   HOH     1     -10.272  29.872 -46.161  0.00  0.00    +0.000 OA
ENDROOT
TORSDOF 0
REMARK  Name = ../refined-set-2016/1szd/1szd_pocket.pdb
REMARK  199 active torsions:
REMARK  status: ('A' for Active; 'I' for Inactive)
REMARK    1  A    between atoms: _1  and  _3
REMARK    2  A    between atoms: _3  and  _4
REMARK    3  A    between atoms: _3  and  _6
REMARK    4  A    between atoms: _9  and  _11
REMARK    5  A    between atoms: _11  and  _12
REMARK    6  A    between atoms: _11  and  _14
REMARK    7  A    between atoms: _17  and  _19
REMARK    8  A    between atoms: _19  and  _20
REMARK    9  A    between atoms: _22  and  _24
REMARK   10  A    between atoms: _24  and  _25
REMARK   11  A    between atoms: _28  and  _30
REMARK   12  A    between atoms: _30  and  _31
REMARK   13  A    between atoms: _33  and  _35
REMARK   14  A    between atoms: _35  and  _36
REMARK   15  A    between atoms: _35  and  _38
REMARK   16  A    between atoms: _38  and  _39
REMARK   17  A    between atoms: _42  and  _44
REMARK   18  A    between atoms: _44  and  _45
REMARK   19  A    between atoms: _44  and  _47
REMARK   20  A    between atoms: _47  and  _48
REMARK   21  A    between atoms: _50  and  _52
REMARK   22  A    between atoms: _52  and  _53
REMARK   23  A    between atoms: _52  and  _55
REMARK   24  A    between atoms: _55  and  _56
REMARK   25  A    between atoms: _59  and  _61
REMARK   26  A    between atoms: _61  and  _62
REMARK   27  A    between atoms: _61  and  _64
REMARK   28  A    between atoms: _64  and  _65
REMARK   29  A    between atoms: _67  and  _69
REMARK   30  A    between atoms: _69  and  _70
REMARK   31  A    between atoms: _69  and  _72
REMARK   32  A    between atoms: _74  and  _76
REMARK   33  A    between atoms: _76  and  _77
REMARK   34  A    between atoms: _76  and  _79
REMARK   35  A    between atoms: _79  and  _80
REMARK   36  A    between atoms: _83  and  _85
REMARK   37  A    between atoms: _85  and  _86
REMARK   38  A    between atoms: _85  and  _88
REMARK   39  A    between atoms: _88  and  _89
REMARK   40  A    between atoms: _95  and  _97
REMARK   41  A    between atoms: _97  and  _98
REMARK   42  A    between atoms: _97  and  _100
REMARK   43  A    between atoms: _100  and  _101
REMARK   44  A    between atoms: _101  and  _102
REMARK   45  A    between atoms: _102  and  _103
REMARK   46  A    between atoms: _113  and  _114
REMARK   47  A    between atoms: _119  and  _121
REMARK   48  A    between atoms: _121  and  _122
REMARK   49  A    between atoms: _121  and  _124
REMARK   50  A    between atoms: _124  and  _125
REMARK   51  A    between atoms: _125  and  _126
REMARK   52  A    between atoms: _129  and  _131
REMARK   53  A    between atoms: _131  and  _132
REMARK   54  A    between atoms: _135  and  _137
REMARK   55  A    between atoms: _137  and  _138
REMARK   56  A    between atoms: _137  and  _140
REMARK   57  A    between atoms: _143  and  _145
REMARK   58  A    between atoms: _145  and  _146
REMARK   59  A    between atoms: _145  and  _148
REMARK   60  A    between atoms: _148  and  _149
REMARK   61  A    between atoms: _155  and  _157
REMARK   62  A    between atoms: _157  and  _158
REMARK   63  A    between atoms: _157  and  _160
REMARK   64  A    between atoms: _160  and  _161
REMARK   65  A    between atoms: _164  and  _166
REMARK   66  A    between atoms: _166  and  _167
REMARK   67  A    between atoms: _166  and  _169
REMARK   68  A    between atoms: _169  and  _170
REMARK   69  A    between atoms: _176  and  _178
REMARK   70  A    between atoms: _178  and  _179
REMARK   71  A    between atoms: _178  and  _181
REMARK   72  A    between atoms: _181  and  _182
REMARK   73  A    between atoms: _185  and  _187
REMARK   74  A    between atoms: _187  and  _188
REMARK   75  A    between atoms: _187  and  _190
REMARK   76  A    between atoms: _190  and  _191
REMARK   77  A    between atoms: _191  and  _192
REMARK   78  A    between atoms: _197  and  _199
REMARK   79  A    between atoms: _199  and  _200
REMARK   80  A    between atoms: _199  and  _202
REMARK   81  A    between atoms: _202  and  _203
REMARK   82  A    between atoms: _208  and  _210
REMARK   83  A    between atoms: _210  and  _211
REMARK   84  A    between atoms: _210  and  _213
REMARK   85  A    between atoms: _213  and  _214
REMARK   86  A    between atoms: _217  and  _219
REMARK   87  A    between atoms: _219  and  _220
REMARK   88  A    between atoms: _219  and  _222
REMARK   89  A    between atoms: _222  and  _223
REMARK   90  A    between atoms: _228  and  _230
REMARK   91  A    between atoms: _230  and  _231
REMARK   92  A    between atoms: _230  and  _233
REMARK   93  A    between atoms: _233  and  _234
REMARK   94  A    between atoms: _237  and  _239
REMARK   95  A    between atoms: _239  and  _240
REMARK   96  A    between atoms: _239  and  _242
REMARK   97  A    between atoms: _245  and  _247
REMARK   98  A    between atoms: _247  and  _248
REMARK   99  A    between atoms: _247  and  _250
REMARK  100  A    between atoms: _250  and  _251
REMARK  101  A    between atoms: _257  and  _259
REMARK  102  A    between atoms: _259  and  _260
REMARK  103  A    between atoms: _259  and  _262
REMARK  104  A    between atoms: _265  and  _267
REMARK  105  A    between atoms: _267  and  _268
REMARK  106  A    between atoms: _267  and  _270
REMARK  107  A    between atoms: _273  and  _275
REMARK  108  A    between atoms: _275  and  _276
REMARK  109  A    between atoms: _278  and  _280
REMARK  110  A    between atoms: _280  and  _281
REMARK  111  A    between atoms: _280  and  _283
REMARK  112  A    between atoms: _283  and  _284
REMARK  113  A    between atoms: _287  and  _289
REMARK  114  A    between atoms: _289  and  _290
REMARK  115  A    between atoms: _289  and  _292
REMARK  116  A    between atoms: _292  and  _293
REMARK  117  A    between atoms: _295  and  _297
REMARK  118  A    between atoms: _297  and  _298
REMARK  119  A    between atoms: _297  and  _300
REMARK  120  A    between atoms: _300  and  _301
REMARK  121  A    between atoms: _304  and  _306
REMARK  122  A    between atoms: _306  and  _307
REMARK  123  A    between atoms: _310  and  _312
REMARK  124  A    between atoms: _312  and  _313
REMARK  125  A    between atoms: _312  and  _315
REMARK  126  A    between atoms: _318  and  _320
REMARK  127  A    between atoms: _320  and  _321
REMARK  128  A    between atoms: _320  and  _323
REMARK  129  A    between atoms: _323  and  _324
REMARK  130  A    between atoms: _329  and  _330
REMARK  131  A    between atoms: _332  and  _334
REMARK  132  A    between atoms: _334  and  _335
REMARK  133  A    between atoms: _334  and  _337
REMARK  134  A    between atoms: _337  and  _338
REMARK  135  A    between atoms: _344  and  _346
REMARK  136  A    between atoms: _346  and  _347
REMARK  137  A    between atoms: _346  and  _349
REMARK  138  A    between atoms: _349  and  _350
REMARK  139  A    between atoms: _353  and  _355
REMARK  140  A    between atoms: _355  and  _356
REMARK  141  A    between atoms: _355  and  _358
REMARK  142  A    between atoms: _360  and  _362
REMARK  143  A    between atoms: _362  and  _363
REMARK  144  A    between atoms: _362  and  _365
REMARK  145  A    between atoms: _365  and  _366
REMARK  146  A    between atoms: _371  and  _373
REMARK  147  A    between atoms: _373  and  _374
REMARK  148  A    between atoms: _373  and  _376
REMARK  149  A    between atoms: _376  and  _377
REMARK  150  A    between atoms: _380  and  _382
REMARK  151  A    between atoms: _382  and  _383
REMARK  152  A    between atoms: _382  and  _385
REMARK  153  A    between atoms: _385  and  _386
REMARK  154  A    between atoms: _386  and  _387
REMARK  155  A    between atoms: _390  and  _392
REMARK  156  A    between atoms: _392  and  _393
REMARK  157  A    between atoms: _392  and  _395
REMARK  158  A    between atoms: _395  and  _396
REMARK  159  A    between atoms: _399  and  _401
REMARK  160  A    between atoms: _401  and  _402
REMARK  161  A    between atoms: _401  and  _404
REMARK  162  A    between atoms: _407  and  _409
REMARK  163  A    between atoms: _409  and  _410
REMARK  164  A    between atoms: _412  and  _414
REMARK  165  A    between atoms: _414  and  _415
REMARK  166  A    between atoms: _414  and  _417
REMARK  167  A    between atoms: _420  and  _422
REMARK  168  A    between atoms: _422  and  _423
REMARK  169  A    between atoms: _422  and  _425
REMARK  170  A    between atoms: _425  and  _426
REMARK  171  A    between atoms: _431  and  _433
REMARK  172  A    between atoms: _433  and  _434
REMARK  173  A    between atoms: _433  and  _436
REMARK  174  A    between atoms: _436  and  _437
REMARK  175  A    between atoms: _437  and  _438
REMARK  176  A    between atoms: _443  and  _445
REMARK  177  A    between atoms: _445  and  _446
REMARK  178  A    between atoms: _445  and  _448
REMARK  179  A    between atoms: _448  and  _449
REMARK  180  A    between atoms: _454  and  _455
REMARK  181  A    between atoms: _457  and  _459
REMARK  182  A    between atoms: _459  and  _460
REMARK  183  A    between atoms: _459  and  _462
REMARK  184  A    between atoms: _462  and  _463
REMARK  185  A    between atoms: _465  and  _467
REMARK  186  A    between atoms: _467  and  _468
REMARK  187  A    between atoms: _467  and  _470
REMARK  188  A    between atoms: _470  and  _471
REMARK  189  A    between atoms: _474  and  _476
REMARK  190  A    between atoms: _476  and  _477
REMARK  191  A    between atoms: _476  and  _479
REMARK  192  A    between atoms: _479  and  _480
REMARK  193  A    between atoms: _480  and  _481
REMARK  194  A    between atoms: _484  and  _486
REMARK  195  A    between atoms: _486  and  _487
REMARK  196  A    between atoms: _486  and  _489
REMARK  197  A    between atoms: _489  and  _490
REMARK  198  A    between atoms: _496  and  _498
REMARK  199  A    between atoms: _498  and  _499
REMARK                            x       y       z     vdW  Elec       q    Type
REMARK                         _______ _______ _______ _____ _____    ______ ____
ROOT
ATOM      1  O   HOH     1     -16.990  32.934 -38.547  0.00  0.00    +0.000 OA
ENDROOT
TORSDOF 0
REMARK  Name = ../refined-set-2016/1szd/1szd_pocket.pdb
REMARK  199 active torsions:
REMARK  status: ('A' for Active; 'I' for Inactive)
REMARK    1  A    between atoms: _1  and  _3
REMARK    2  A    between atoms: _3  and  _4
REMARK    3  A    between atoms: _3  and  _6
REMARK    4  A    between atoms: _9  and  _11
REMARK    5  A    between atoms: _11  and  _12
REMARK    6  A    between atoms: _11  and  _14
REMARK    7  A    between atoms: _17  and  _19
REMARK    8  A    between atoms: _19  and  _20
REMARK    9  A    between atoms: _22  and  _24
REMARK   10  A    between atoms: _24  and  _25
REMARK   11  A    between atoms: _28  and  _30
REMARK   12  A    between atoms: _30  and  _31
REMARK   13  A    between atoms: _33  and  _35
REMARK   14  A    between atoms: _35  and  _36
REMARK   15  A    between atoms: _35  and  _38
REMARK   16  A    between atoms: _38  and  _39
REMARK   17  A    between atoms: _42  and  _44
REMARK   18  A    between atoms: _44  and  _45
REMARK   19  A    between atoms: _44  and  _47
REMARK   20  A    between atoms: _47  and  _48
REMARK   21  A    between atoms: _50  and  _52
REMARK   22  A    between atoms: _52  and  _53
REMARK   23  A    between atoms: _52  and  _55
REMARK   24  A    between atoms: _55  and  _56
REMARK   25  A    between atoms: _59  and  _61
REMARK   26  A    between atoms: _61  and  _62
REMARK   27  A    between atoms: _61  and  _64
REMARK   28  A    between atoms: _64  and  _65
REMARK   29  A    between atoms: _67  and  _69
REMARK   30  A    between atoms: _69  and  _70
REMARK   31  A    between atoms: _69  and  _72
REMARK   32  A    between atoms: _74  and  _76
REMARK   33  A    between atoms: _76  and  _77
REMARK   34  A    between atoms: _76  and  _79
REMARK   35  A    between atoms: _79  and  _80
REMARK   36  A    between atoms: _83  and  _85
REMARK   37  A    between atoms: _85  and  _86
REMARK   38  A    between atoms: _85  and  _88
REMARK   39  A    between atoms: _88  and  _89
REMARK   40  A    between atoms: _95  and  _97
REMARK   41  A    between atoms: _97  and  _98
REMARK   42  A    between atoms: _97  and  _100
REMARK   43  A    between atoms: _100  and  _101
REMARK   44  A    between atoms: _101  and  _102
REMARK   45  A    between atoms: _102  and  _103
REMARK   46  A    between atoms: _113  and  _114
REMARK   47  A    between atoms: _119  and  _121
REMARK   48  A    between atoms: _121  and  _122
REMARK   49  A    between atoms: _121  and  _124
REMARK   50  A    between atoms: _124  and  _125
REMARK   51  A    between atoms: _125  and  _126
REMARK   52  A    between atoms: _129  and  _131
REMARK   53  A    between atoms: _131  and  _132
REMARK   54  A    between atoms: _135  and  _137
REMARK   55  A    between atoms: _137  and  _138
REMARK   56  A    between atoms: _137  and  _140
REMARK   57  A    between atoms: _143  and  _145
REMARK   58  A    between atoms: _145  and  _146
REMARK   59  A    between atoms: _145  and  _148
REMARK   60  A    between atoms: _148  and  _149
REMARK   61  A    between atoms: _155  and  _157
REMARK   62  A    between atoms: _157  and  _158
REMARK   63  A    between atoms: _157  and  _160
REMARK   64  A    between atoms: _160  and  _161
REMARK   65  A    between atoms: _164  and  _166
REMARK   66  A    between atoms: _166  and  _167
REMARK   67  A    between atoms: _166  and  _169
REMARK   68  A    between atoms: _169  and  _170
REMARK   69  A    between atoms: _176  and  _178
REMARK   70  A    between atoms: _178  and  _179
REMARK   71  A    between atoms: _178  and  _181
REMARK   72  A    between atoms: _181  and  _182
REMARK   73  A    between atoms: _185  and  _187
REMARK   74  A    between atoms: _187  and  _188
REMARK   75  A    between atoms: _187  and  _190
REMARK   76  A    between atoms: _190  and  _191
REMARK   77  A    between atoms: _191  and  _192
REMARK   78  A    between atoms: _197  and  _199
REMARK   79  A    between atoms: _199  and  _200
REMARK   80  A    between atoms: _199  and  _202
REMARK   81  A    between atoms: _202  and  _203
REMARK   82  A    between atoms: _208  and  _210
REMARK   83  A    between atoms: _210  and  _211
REMARK   84  A    between atoms: _210  and  _213
REMARK   85  A    between atoms: _213  and  _214
REMARK   86  A    between atoms: _217  and  _219
REMARK   87  A    between atoms: _219  and  _220
REMARK   88  A    between atoms: _219  and  _222
REMARK   89  A    between atoms: _222  and  _223
REMARK   90  A    between atoms: _228  and  _230
REMARK   91  A    between atoms: _230  and  _231
REMARK   92  A    between atoms: _230  and  _233
REMARK   93  A    between atoms: _233  and  _234
REMARK   94  A    between atoms: _237  and  _239
REMARK   95  A    between atoms: _239  and  _240
REMARK   96  A    between atoms: _239  and  _242
REMARK   97  A    between atoms: _245  and  _247
REMARK   98  A    between atoms: _247  and  _248
REMARK   99  A    between atoms: _247  and  _250
REMARK  100  A    between atoms: _250  and  _251
REMARK  101  A    between atoms: _257  and  _259
REMARK  102  A    between atoms: _259  and  _260
REMARK  103  A    between atoms: _259  and  _262
REMARK  104  A    between atoms: _265  and  _267
REMARK  105  A    between atoms: _267  and  _268
REMARK  106  A    between atoms: _267  and  _270
REMARK  107  A    between atoms: _273  and  _275
REMARK  108  A    between atoms: _275  and  _276
REMARK  109  A    between atoms: _278  and  _280
REMARK  110  A    between atoms: _280  and  _281
REMARK  111  A    between atoms: _280  and  _283
REMARK  112  A    between atoms: _283  and  _284
REMARK  113  A    between atoms: _287  and  _289
REMARK  114  A    between atoms: _289  and  _290
REMARK  115  A    between atoms: _289  and  _292
REMARK  116  A    between atoms: _292  and  _293
REMARK  117  A    between atoms: _295  and  _297
REMARK  118  A    between atoms: _297  and  _298
REMARK  119  A    between atoms: _297  and  _300
REMARK  120  A    between atoms: _300  and  _301
REMARK  121  A    between atoms: _304  and  _306
REMARK  122  A    between atoms: _306  and  _307
REMARK  123  A    between atoms: _310  and  _312
REMARK  124  A    between atoms: _312  and  _313
REMARK  125  A    between atoms: _312  and  _315
REMARK  126  A    between atoms: _318  and  _320
REMARK  127  A    between atoms: _320  and  _321
REMARK  128  A    between atoms: _320  and  _323
REMARK  129  A    between atoms: _323  and  _324
REMARK  130  A    between atoms: _329  and  _330
REMARK  131  A    between atoms: _332  and  _334
REMARK  132  A    between atoms: _334  and  _335
REMARK  133  A    between atoms: _334  and  _337
REMARK  134  A    between atoms: _337  and  _338
REMARK  135  A    between atoms: _344  and  _346
REMARK  136  A    between atoms: _346  and  _347
REMARK  137  A    between atoms: _346  and  _349
REMARK  138  A    between atoms: _349  and  _350
REMARK  139  A    between atoms: _353  and  _355
REMARK  140  A    between atoms: _355  and  _356
REMARK  141  A    between atoms: _355  and  _358
REMARK  142  A    between atoms: _360  and  _362
REMARK  143  A    between atoms: _362  and  _363
REMARK  144  A    between atoms: _362  and  _365
REMARK  145  A    between atoms: _365  and  _366
REMARK  146  A    between atoms: _371  and  _373
REMARK  147  A    between atoms: _373  and  _374
REMARK  148  A    between atoms: _373  and  _376
REMARK  149  A    between atoms: _376  and  _377
REMARK  150  A    between atoms: _380  and  _382
REMARK  151  A    between atoms: _382  and  _383
REMARK  152  A    between atoms: _382  and  _385
REMARK  153  A    between atoms: _385  and  _386
REMARK  154  A    between atoms: _386  and  _387
REMARK  155  A    between atoms: _390  and  _392
REMARK  156  A    between atoms: _392  and  _393
REMARK  157  A    between atoms: _392  and  _395
REMARK  158  A    between atoms: _395  and  _396
REMARK  159  A    between atoms: _399  and  _401
REMARK  160  A    between atoms: _401  and  _402
REMARK  161  A    between atoms: _401  and  _404
REMARK  162  A    between atoms: _407  and  _409
REMARK  163  A    between atoms: _409  and  _410
REMARK  164  A    between atoms: _412  and  _414
REMARK  165  A    between atoms: _414  and  _415
REMARK  166  A    between atoms: _414  and  _417
REMARK  167  A    between atoms: _420  and  _422
REMARK  168  A    between atoms: _422  and  _423
REMARK  169  A    between atoms: _422  and  _425
REMARK  170  A    between atoms: _425  and  _426
REMARK  171  A    between atoms: _431  and  _433
REMARK  172  A    between atoms: _433  and  _434
REMARK  173  A    between atoms: _433  and  _436
REMARK  174  A    between atoms: _436  and  _437
REMARK  175  A    between atoms: _437  and  _438
REMARK  176  A    between atoms: _443  and  _445
REMARK  177  A    between atoms: _445  and  _446
REMARK  178  A    between atoms: _445  and  _448
REMARK  179  A    between atoms: _448  and  _449
REMARK  180  A    between atoms: _454  and  _455
REMARK  181  A    between atoms: _457  and  _459
REMARK  182  A    between atoms: _459  and  _460
REMARK  183  A    between atoms: _459  and  _462
REMARK  184  A    between atoms: _462  and  _463
REMARK  185  A    between atoms: _465  and  _467
REMARK  186  A    between atoms: _467  and  _468
REMARK  187  A    between atoms: _467  and  _470
REMARK  188  A    between atoms: _470  and  _471
REMARK  189  A    between atoms: _474  and  _476
REMARK  190  A    between atoms: _476  and  _477
REMARK  191  A    between atoms: _476  and  _479
REMARK  192  A    between atoms: _479  and  _480
REMARK  193  A    between atoms: _480  and  _481
REMARK  194  A    between atoms: _484  and  _486
REMARK  195  A    between atoms: _486  and  _487
REMARK  196  A    between atoms: _486  and  _489
REMARK  197  A    between atoms: _489  and  _490
REMARK  198  A    between atoms: _496  and  _498
REMARK  199  A    between atoms: _498  and  _499
REMARK                            x       y       z     vdW  Elec       q    Type
REMARK                         _______ _______ _______ _____ _____    ______ ____
ROOT
ATOM      1  O   HOH     1     -10.059  41.413 -46.337  0.00  0.00    +0.000 OA
ENDROOT
TORSDOF 0
REMARK  Name = ../refined-set-2016/1szd/1szd_pocket.pdb
REMARK  199 active torsions:
REMARK  status: ('A' for Active; 'I' for Inactive)
REMARK    1  A    between atoms: _1  and  _3
REMARK    2  A    between atoms: _3  and  _4
REMARK    3  A    between atoms: _3  and  _6
REMARK    4  A    between atoms: _9  and  _11
REMARK    5  A    between atoms: _11  and  _12
REMARK    6  A    between atoms: _11  and  _14
REMARK    7  A    between atoms: _17  and  _19
REMARK    8  A    between atoms: _19  and  _20
REMARK    9  A    between atoms: _22  and  _24
REMARK   10  A    between atoms: _24  and  _25
REMARK   11  A    between atoms: _28  and  _30
REMARK   12  A    between atoms: _30  and  _31
REMARK   13  A    between atoms: _33  and  _35
REMARK   14  A    between atoms: _35  and  _36
REMARK   15  A    between atoms: _35  and  _38
REMARK   16  A    between atoms: _38  and  _39
REMARK   17  A    between atoms: _42  and  _44
REMARK   18  A    between atoms: _44  and  _45
REMARK   19  A    between atoms: _44  and  _47
REMARK   20  A    between atoms: _47  and  _48
REMARK   21  A    between atoms: _50  and  _52
REMARK   22  A    between atoms: _52  and  _53
REMARK   23  A    between atoms: _52  and  _55
REMARK   24  A    between atoms: _55  and  _56
REMARK   25  A    between atoms: _59  and  _61
REMARK   26  A    between atoms: _61  and  _62
REMARK   27  A    between atoms: _61  and  _64
REMARK   28  A    between atoms: _64  and  _65
REMARK   29  A    between atoms: _67  and  _69
REMARK   30  A    between atoms: _69  and  _70
REMARK   31  A    between atoms: _69  and  _72
REMARK   32  A    between atoms: _74  and  _76
REMARK   33  A    between atoms: _76  and  _77
REMARK   34  A    between atoms: _76  and  _79
REMARK   35  A    between atoms: _79  and  _80
REMARK   36  A    between atoms: _83  and  _85
REMARK   37  A    between atoms: _85  and  _86
REMARK   38  A    between atoms: _85  and  _88
REMARK   39  A    between atoms: _88  and  _89
REMARK   40  A    between atoms: _95  and  _97
REMARK   41  A    between atoms: _97  and  _98
REMARK   42  A    between atoms: _97  and  _100
REMARK   43  A    between atoms: _100  and  _101
REMARK   44  A    between atoms: _101  and  _102
REMARK   45  A    between atoms: _102  and  _103
REMARK   46  A    between atoms: _113  and  _114
REMARK   47  A    between atoms: _119  and  _121
REMARK   48  A    between atoms: _121  and  _122
REMARK   49  A    between atoms: _121  and  _124
REMARK   50  A    between atoms: _124  and  _125
REMARK   51  A    between atoms: _125  and  _126
REMARK   52  A    between atoms: _129  and  _131
REMARK   53  A    between atoms: _131  and  _132
REMARK   54  A    between atoms: _135  and  _137
REMARK   55  A    between atoms: _137  and  _138
REMARK   56  A    between atoms: _137  and  _140
REMARK   57  A    between atoms: _143  and  _145
REMARK   58  A    between atoms: _145  and  _146
REMARK   59  A    between atoms: _145  and  _148
REMARK   60  A    between atoms: _148  and  _149
REMARK   61  A    between atoms: _155  and  _157
REMARK   62  A    between atoms: _157  and  _158
REMARK   63  A    between atoms: _157  and  _160
REMARK   64  A    between atoms: _160  and  _161
REMARK   65  A    between atoms: _164  and  _166
REMARK   66  A    between atoms: _166  and  _167
REMARK   67  A    between atoms: _166  and  _169
REMARK   68  A    between atoms: _169  and  _170
REMARK   69  A    between atoms: _176  and  _178
REMARK   70  A    between atoms: _178  and  _179
REMARK   71  A    between atoms: _178  and  _181
REMARK   72  A    between atoms: _181  and  _182
REMARK   73  A    between atoms: _185  and  _187
REMARK   74  A    between atoms: _187  and  _188
REMARK   75  A    between atoms: _187  and  _190
REMARK   76  A    between atoms: _190  and  _191
REMARK   77  A    between atoms: _191  and  _192
REMARK   78  A    between atoms: _197  and  _199
REMARK   79  A    between atoms: _199  and  _200
REMARK   80  A    between atoms: _199  and  _202
REMARK   81  A    between atoms: _202  and  _203
REMARK   82  A    between atoms: _208  and  _210
REMARK   83  A    between atoms: _210  and  _211
REMARK   84  A    between atoms: _210  and  _213
REMARK   85  A    between atoms: _213  and  _214
REMARK   86  A    between atoms: _217  and  _219
REMARK   87  A    between atoms: _219  and  _220
REMARK   88  A    between atoms: _219  and  _222
REMARK   89  A    between atoms: _222  and  _223
REMARK   90  A    between atoms: _228  and  _230
REMARK   91  A    between atoms: _230  and  _231
REMARK   92  A    between atoms: _230  and  _233
REMARK   93  A    between atoms: _233  and  _234
REMARK   94  A    between atoms: _237  and  _239
REMARK   95  A    between atoms: _239  and  _240
REMARK   96  A    between atoms: _239  and  _242
REMARK   97  A    between atoms: _245  and  _247
REMARK   98  A    between atoms: _247  and  _248
REMARK   99  A    between atoms: _247  and  _250
REMARK  100  A    between atoms: _250  and  _251
REMARK  101  A    between atoms: _257  and  _259
REMARK  102  A    between atoms: _259  and  _260
REMARK  103  A    between atoms: _259  and  _262
REMARK  104  A    between atoms: _265  and  _267
REMARK  105  A    between atoms: _267  and  _268
REMARK  106  A    between atoms: _267  and  _270
REMARK  107  A    between atoms: _273  and  _275
REMARK  108  A    between atoms: _275  and  _276
REMARK  109  A    between atoms: _278  and  _280
REMARK  110  A    between atoms: _280  and  _281
REMARK  111  A    between atoms: _280  and  _283
REMARK  112  A    between atoms: _283  and  _284
REMARK  113  A    between atoms: _287  and  _289
REMARK  114  A    between atoms: _289  and  _290
REMARK  115  A    between atoms: _289  and  _292
REMARK  116  A    between atoms: _292  and  _293
REMARK  117  A    between atoms: _295  and  _297
REMARK  118  A    between atoms: _297  and  _298
REMARK  119  A    between atoms: _297  and  _300
REMARK  120  A    between atoms: _300  and  _301
REMARK  121  A    between atoms: _304  and  _306
REMARK  122  A    between atoms: _306  and  _307
REMARK  123  A    between atoms: _310  and  _312
REMARK  124  A    between atoms: _312  and  _313
REMARK  125  A    between atoms: _312  and  _315
REMARK  126  A    between atoms: _318  and  _320
REMARK  127  A    between atoms: _320  and  _321
REMARK  128  A    between atoms: _320  and  _323
REMARK  129  A    between atoms: _323  and  _324
REMARK  130  A    between atoms: _329  and  _330
REMARK  131  A    between atoms: _332  and  _334
REMARK  132  A    between atoms: _334  and  _335
REMARK  133  A    between atoms: _334  and  _337
REMARK  134  A    between atoms: _337  and  _338
REMARK  135  A    between atoms: _344  and  _346
REMARK  136  A    between atoms: _346  and  _347
REMARK  137  A    between atoms: _346  and  _349
REMARK  138  A    between atoms: _349  and  _350
REMARK  139  A    between atoms: _353  and  _355
REMARK  140  A    between atoms: _355  and  _356
REMARK  141  A    between atoms: _355  and  _358
REMARK  142  A    between atoms: _360  and  _362
REMARK  143  A    between atoms: _362  and  _363
REMARK  144  A    between atoms: _362  and  _365
REMARK  145  A    between atoms: _365  and  _366
REMARK  146  A    between atoms: _371  and  _373
REMARK  147  A    between atoms: _373  and  _374
REMARK  148  A    between atoms: _373  and  _376
REMARK  149  A    between atoms: _376  and  _377
REMARK  150  A    between atoms: _380  and  _382
REMARK  151  A    between atoms: _382  and  _383
REMARK  152  A    between atoms: _382  and  _385
REMARK  153  A    between atoms: _385  and  _386
REMARK  154  A    between atoms: _386  and  _387
REMARK  155  A    between atoms: _390  and  _392
REMARK  156  A    between atoms: _392  and  _393
REMARK  157  A    between atoms: _392  and  _395
REMARK  158  A    between atoms: _395  and  _396
REMARK  159  A    between atoms: _399  and  _401
REMARK  160  A    between atoms: _401  and  _402
REMARK  161  A    between atoms: _401  and  _404
REMARK  162  A    between atoms: _407  and  _409
REMARK  163  A    between atoms: _409  and  _410
REMARK  164  A    between atoms: _412  and  _414
REMARK  165  A    between atoms: _414  and  _415
REMARK  166  A    between atoms: _414  and  _417
REMARK  167  A    between atoms: _420  and  _422
REMARK  168  A    between atoms: _422  and  _423
REMARK  169  A    between atoms: _422  and  _425
REMARK  170  A    between atoms: _425  and  _426
REMARK  171  A    between atoms: _431  and  _433
REMARK  172  A    between atoms: _433  and  _434
REMARK  173  A    between atoms: _433  and  _436
REMARK  174  A    between atoms: _436  and  _437
REMARK  175  A    between atoms: _437  and  _438
REMARK  176  A    between atoms: _443  and  _445
REMARK  177  A    between atoms: _445  and  _446
REMARK  178  A    between atoms: _445  and  _448
REMARK  179  A    between atoms: _448  and  _449
REMARK  180  A    between atoms: _454  and  _455
REMARK  181  A    between atoms: _457  and  _459
REMARK  182  A    between atoms: _459  and  _460
REMARK  183  A    between atoms: _459  and  _462
REMARK  184  A    between atoms: _462  and  _463
REMARK  185  A    between atoms: _465  and  _467
REMARK  186  A    between atoms: _467  and  _468
REMARK  187  A    between atoms: _467  and  _470
REMARK  188  A    between atoms: _470  and  _471
REMARK  189  A    between atoms: _474  and  _476
REMARK  190  A    between atoms: _476  and  _477
REMARK  191  A    between atoms: _476  and  _479
REMARK  192  A    between atoms: _479  and  _480
REMARK  193  A    between atoms: _480  and  _481
REMARK  194  A    between atoms: _484  and  _486
REMARK  195  A    between atoms: _486  and  _487
REMARK  196  A    between atoms: _486  and  _489
REMARK  197  A    between atoms: _489  and  _490
REMARK  198  A    between atoms: _496  and  _498
REMARK  199  A    between atoms: _498  and  _499
REMARK                            x       y       z     vdW  Elec       q    Type
REMARK                         _______ _______ _______ _____ _____    ______ ____
ROOT
ATOM      1  O   HOH     1     -12.937  31.607 -44.750  0.00  0.00    +0.000 OA
ENDROOT
TORSDOF 0
REMARK  Name = ../refined-set-2016/1szd/1szd_pocket.pdb
REMARK  199 active torsions:
REMARK  status: ('A' for Active; 'I' for Inactive)
REMARK    1  A    between atoms: _1  and  _3
REMARK    2  A    between atoms: _3  and  _4
REMARK    3  A    between atoms: _3  and  _6
REMARK    4  A    between atoms: _9  and  _11
REMARK    5  A    between atoms: _11  and  _12
REMARK    6  A    between atoms: _11  and  _14
REMARK    7  A    between atoms: _17  and  _19
REMARK    8  A    between atoms: _19  and  _20
REMARK    9  A    between atoms: _22  and  _24
REMARK   10  A    between atoms: _24  and  _25
REMARK   11  A    between atoms: _28  and  _30
REMARK   12  A    between atoms: _30  and  _31
REMARK   13  A    between atoms: _33  and  _35
REMARK   14  A    between atoms: _35  and  _36
REMARK   15  A    between atoms: _35  and  _38
REMARK   16  A    between atoms: _38  and  _39
REMARK   17  A    between atoms: _42  and  _44
REMARK   18  A    between atoms: _44  and  _45
REMARK   19  A    between atoms: _44  and  _47
REMARK   20  A    between atoms: _47  and  _48
REMARK   21  A    between atoms: _50  and  _52
REMARK   22  A    between atoms: _52  and  _53
REMARK   23  A    between atoms: _52  and  _55
REMARK   24  A    between atoms: _55  and  _56
REMARK   25  A    between atoms: _59  and  _61
REMARK   26  A    between atoms: _61  and  _62
REMARK   27  A    between atoms: _61  and  _64
REMARK   28  A    between atoms: _64  and  _65
REMARK   29  A    between atoms: _67  and  _69
REMARK   30  A    between atoms: _69  and  _70
REMARK   31  A    between atoms: _69  and  _72
REMARK   32  A    between atoms: _74  and  _76
REMARK   33  A    between atoms: _76  and  _77
REMARK   34  A    between atoms: _76  and  _79
REMARK   35  A    between atoms: _79  and  _80
REMARK   36  A    between atoms: _83  and  _85
REMARK   37  A    between atoms: _85  and  _86
REMARK   38  A    between atoms: _85  and  _88
REMARK   39  A    between atoms: _88  and  _89
REMARK   40  A    between atoms: _95  and  _97
REMARK   41  A    between atoms: _97  and  _98
REMARK   42  A    between atoms: _97  and  _100
REMARK   43  A    between atoms: _100  and  _101
REMARK   44  A    between atoms: _101  and  _102
REMARK   45  A    between atoms: _102  and  _103
REMARK   46  A    between atoms: _113  and  _114
REMARK   47  A    between atoms: _119  and  _121
REMARK   48  A    between atoms: _121  and  _122
REMARK   49  A    between atoms: _121  and  _124
REMARK   50  A    between atoms: _124  and  _125
REMARK   51  A    between atoms: _125  and  _126
REMARK   52  A    between atoms: _129  and  _131
REMARK   53  A    between atoms: _131  and  _132
REMARK   54  A    between atoms: _135  and  _137
REMARK   55  A    between atoms: _137  and  _138
REMARK   56  A    between atoms: _137  and  _140
REMARK   57  A    between atoms: _143  and  _145
REMARK   58  A    between atoms: _145  and  _146
REMARK   59  A    between atoms: _145  and  _148
REMARK   60  A    between atoms: _148  and  _149
REMARK   61  A    between atoms: _155  and  _157
REMARK   62  A    between atoms: _157  and  _158
REMARK   63  A    between atoms: _157  and  _160
REMARK   64  A    between atoms: _160  and  _161
REMARK   65  A    between atoms: _164  and  _166
REMARK   66  A    between atoms: _166  and  _167
REMARK   67  A    between atoms: _166  and  _169
REMARK   68  A    between atoms: _169  and  _170
REMARK   69  A    between atoms: _176  and  _178
REMARK   70  A    between atoms: _178  and  _179
REMARK   71  A    between atoms: _178  and  _181
REMARK   72  A    between atoms: _181  and  _182
REMARK   73  A    between atoms: _185  and  _187
REMARK   74  A    between atoms: _187  and  _188
REMARK   75  A    between atoms: _187  and  _190
REMARK   76  A    between atoms: _190  and  _191
REMARK   77  A    between atoms: _191  and  _192
REMARK   78  A    between atoms: _197  and  _199
REMARK   79  A    between atoms: _199  and  _200
REMARK   80  A    between atoms: _199  and  _202
REMARK   81  A    between atoms: _202  and  _203
REMARK   82  A    between atoms: _208  and  _210
REMARK   83  A    between atoms: _210  and  _211
REMARK   84  A    between atoms: _210  and  _213
REMARK   85  A    between atoms: _213  and  _214
REMARK   86  A    between atoms: _217  and  _219
REMARK   87  A    between atoms: _219  and  _220
REMARK   88  A    between atoms: _219  and  _222
REMARK   89  A    between atoms: _222  and  _223
REMARK   90  A    between atoms: _228  and  _230
REMARK   91  A    between atoms: _230  and  _231
REMARK   92  A    between atoms: _230  and  _233
REMARK   93  A    between atoms: _233  and  _234
REMARK   94  A    between atoms: _237  and  _239
REMARK   95  A    between atoms: _239  and  _240
REMARK   96  A    between atoms: _239  and  _242
REMARK   97  A    between atoms: _245  and  _247
REMARK   98  A    between atoms: _247  and  _248
REMARK   99  A    between atoms: _247  and  _250
REMARK  100  A    between atoms: _250  and  _251
REMARK  101  A    between atoms: _257  and  _259
REMARK  102  A    between atoms: _259  and  _260
REMARK  103  A    between atoms: _259  and  _262
REMARK  104  A    between atoms: _265  and  _267
REMARK  105  A    between atoms: _267  and  _268
REMARK  106  A    between atoms: _267  and  _270
REMARK  107  A    between atoms: _273  and  _275
REMARK  108  A    between atoms: _275  and  _276
REMARK  109  A    between atoms: _278  and  _280
REMARK  110  A    between atoms: _280  and  _281
REMARK  111  A    between atoms: _280  and  _283
REMARK  112  A    between atoms: _283  and  _284
REMARK  113  A    between atoms: _287  and  _289
REMARK  114  A    between atoms: _289  and  _290
REMARK  115  A    between atoms: _289  and  _292
REMARK  116  A    between atoms: _292  and  _293
REMARK  117  A    between atoms: _295  and  _297
REMARK  118  A    between atoms: _297  and  _298
REMARK  119  A    between atoms: _297  and  _300
REMARK  120  A    between atoms: _300  and  _301
REMARK  121  A    between atoms: _304  and  _306
REMARK  122  A    between atoms: _306  and  _307
REMARK  123  A    between atoms: _310  and  _312
REMARK  124  A    between atoms: _312  and  _313
REMARK  125  A    between atoms: _312  and  _315
REMARK  126  A    between atoms: _318  and  _320
REMARK  127  A    between atoms: _320  and  _321
REMARK  128  A    between atoms: _320  and  _323
REMARK  129  A    between atoms: _323  and  _324
REMARK  130  A    between atoms: _329  and  _330
REMARK  131  A    between atoms: _332  and  _334
REMARK  132  A    between atoms: _334  and  _335
REMARK  133  A    between atoms: _334  and  _337
REMARK  134  A    between atoms: _337  and  _338
REMARK  135  A    between atoms: _344  and  _346
REMARK  136  A    between atoms: _346  and  _347
REMARK  137  A    between atoms: _346  and  _349
REMARK  138  A    between atoms: _349  and  _350
REMARK  139  A    between atoms: _353  and  _355
REMARK  140  A    between atoms: _355  and  _356
REMARK  141  A    between atoms: _355  and  _358
REMARK  142  A    between atoms: _360  and  _362
REMARK  143  A    between atoms: _362  and  _363
REMARK  144  A    between atoms: _362  and  _365
REMARK  145  A    between atoms: _365  and  _366
REMARK  146  A    between atoms: _371  and  _373
REMARK  147  A    between atoms: _373  and  _374
REMARK  148  A    between atoms: _373  and  _376
REMARK  149  A    between atoms: _376  and  _377
REMARK  150  A    between atoms: _380  and  _382
REMARK  151  A    between atoms: _382  and  _383
REMARK  152  A    between atoms: _382  and  _385
REMARK  153  A    between atoms: _385  and  _386
REMARK  154  A    between atoms: _386  and  _387
REMARK  155  A    between atoms: _390  and  _392
REMARK  156  A    between atoms: _392  and  _393
REMARK  157  A    between atoms: _392  and  _395
REMARK  158  A    between atoms: _395  and  _396
REMARK  159  A    between atoms: _399  and  _401
REMARK  160  A    between atoms: _401  and  _402
REMARK  161  A    between atoms: _401  and  _404
REMARK  162  A    between atoms: _407  and  _409
REMARK  163  A    between atoms: _409  and  _410
REMARK  164  A    between atoms: _412  and  _414
REMARK  165  A    between atoms: _414  and  _415
REMARK  166  A    between atoms: _414  and  _417
REMARK  167  A    between atoms: _420  and  _422
REMARK  168  A    between atoms: _422  and  _423
REMARK  169  A    between atoms: _422  and  _425
REMARK  170  A    between atoms: _425  and  _426
REMARK  171  A    between atoms: _431  and  _433
REMARK  172  A    between atoms: _433  and  _434
REMARK  173  A    between atoms: _433  and  _436
REMARK  174  A    between atoms: _436  and  _437
REMARK  175  A    between atoms: _437  and  _438
REMARK  176  A    between atoms: _443  and  _445
REMARK  177  A    between atoms: _445  and  _446
REMARK  178  A    between atoms: _445  and  _448
REMARK  179  A    between atoms: _448  and  _449
REMARK  180  A    between atoms: _454  and  _455
REMARK  181  A    between atoms: _457  and  _459
REMARK  182  A    between atoms: _459  and  _460
REMARK  183  A    between atoms: _459  and  _462
REMARK  184  A    between atoms: _462  and  _463
REMARK  185  A    between atoms: _465  and  _467
REMARK  186  A    between atoms: _467  and  _468
REMARK  187  A    between atoms: _467  and  _470
REMARK  188  A    between atoms: _470  and  _471
REMARK  189  A    between atoms: _474  and  _476
REMARK  190  A    between atoms: _476  and  _477
REMARK  191  A    between atoms: _476  and  _479
REMARK  192  A    between atoms: _479  and  _480
REMARK  193  A    between atoms: _480  and  _481
REMARK  194  A    between atoms: _484  and  _486
REMARK  195  A    between atoms: _486  and  _487
REMARK  196  A    between atoms: _486  and  _489
REMARK  197  A    between atoms: _489  and  _490
REMARK  198  A    between atoms: _496  and  _498
REMARK  199  A    between atoms: _498  and  _499
REMARK                            x       y       z     vdW  Elec       q    Type
REMARK                         _______ _______ _______ _____ _____    ______ ____
ROOT
ATOM      1  O   HOH     1     -12.967  37.395 -43.754  0.00  0.00    +0.000 OA
ENDROOT
TORSDOF 0
REMARK  Name = ../refined-set-2016/1szd/1szd_pocket.pdb
REMARK  199 active torsions:
REMARK  status: ('A' for Active; 'I' for Inactive)
REMARK    1  A    between atoms: _1  and  _3
REMARK    2  A    between atoms: _3  and  _4
REMARK    3  A    between atoms: _3  and  _6
REMARK    4  A    between atoms: _9  and  _11
REMARK    5  A    between atoms: _11  and  _12
REMARK    6  A    between atoms: _11  and  _14
REMARK    7  A    between atoms: _17  and  _19
REMARK    8  A    between atoms: _19  and  _20
REMARK    9  A    between atoms: _22  and  _24
REMARK   10  A    between atoms: _24  and  _25
REMARK   11  A    between atoms: _28  and  _30
REMARK   12  A    between atoms: _30  and  _31
REMARK   13  A    between atoms: _33  and  _35
REMARK   14  A    between atoms: _35  and  _36
REMARK   15  A    between atoms: _35  and  _38
REMARK   16  A    between atoms: _38  and  _39
REMARK   17  A    between atoms: _42  and  _44
REMARK   18  A    between atoms: _44  and  _45
REMARK   19  A    between atoms: _44  and  _47
REMARK   20  A    between atoms: _47  and  _48
REMARK   21  A    between atoms: _50  and  _52
REMARK   22  A    between atoms: _52  and  _53
REMARK   23  A    between atoms: _52  and  _55
REMARK   24  A    between atoms: _55  and  _56
REMARK   25  A    between atoms: _59  and  _61
REMARK   26  A    between atoms: _61  and  _62
REMARK   27  A    between atoms: _61  and  _64
REMARK   28  A    between atoms: _64  and  _65
REMARK   29  A    between atoms: _67  and  _69
REMARK   30  A    between atoms: _69  and  _70
REMARK   31  A    between atoms: _69  and  _72
REMARK   32  A    between atoms: _74  and  _76
REMARK   33  A    between atoms: _76  and  _77
REMARK   34  A    between atoms: _76  and  _79
REMARK   35  A    between atoms: _79  and  _80
REMARK   36  A    between atoms: _83  and  _85
REMARK   37  A    between atoms: _85  and  _86
REMARK   38  A    between atoms: _85  and  _88
REMARK   39  A    between atoms: _88  and  _89
REMARK   40  A    between atoms: _95  and  _97
REMARK   41  A    between atoms: _97  and  _98
REMARK   42  A    between atoms: _97  and  _100
REMARK   43  A    between atoms: _100  and  _101
REMARK   44  A    between atoms: _101  and  _102
REMARK   45  A    between atoms: _102  and  _103
REMARK   46  A    between atoms: _113  and  _114
REMARK   47  A    between atoms: _119  and  _121
REMARK   48  A    between atoms: _121  and  _122
REMARK   49  A    between atoms: _121  and  _124
REMARK   50  A    between atoms: _124  and  _125
REMARK   51  A    between atoms: _125  and  _126
REMARK   52  A    between atoms: _129  and  _131
REMARK   53  A    between atoms: _131  and  _132
REMARK   54  A    between atoms: _135  and  _137
REMARK   55  A    between atoms: _137  and  _138
REMARK   56  A    between atoms: _137  and  _140
REMARK   57  A    between atoms: _143  and  _145
REMARK   58  A    between atoms: _145  and  _146
REMARK   59  A    between atoms: _145  and  _148
REMARK   60  A    between atoms: _148  and  _149
REMARK   61  A    between atoms: _155  and  _157
REMARK   62  A    between atoms: _157  and  _158
REMARK   63  A    between atoms: _157  and  _160
REMARK   64  A    between atoms: _160  and  _161
REMARK   65  A    between atoms: _164  and  _166
REMARK   66  A    between atoms: _166  and  _167
REMARK   67  A    between atoms: _166  and  _169
REMARK   68  A    between atoms: _169  and  _170
REMARK   69  A    between atoms: _176  and  _178
REMARK   70  A    between atoms: _178  and  _179
REMARK   71  A    between atoms: _178  and  _181
REMARK   72  A    between atoms: _181  and  _182
REMARK   73  A    between atoms: _185  and  _187
REMARK   74  A    between atoms: _187  and  _188
REMARK   75  A    between atoms: _187  and  _190
REMARK   76  A    between atoms: _190  and  _191
REMARK   77  A    between atoms: _191  and  _192
REMARK   78  A    between atoms: _197  and  _199
REMARK   79  A    between atoms: _199  and  _200
REMARK   80  A    between atoms: _199  and  _202
REMARK   81  A    between atoms: _202  and  _203
REMARK   82  A    between atoms: _208  and  _210
REMARK   83  A    between atoms: _210  and  _211
REMARK   84  A    between atoms: _210  and  _213
REMARK   85  A    between atoms: _213  and  _214
REMARK   86  A    between atoms: _217  and  _219
REMARK   87  A    between atoms: _219  and  _220
REMARK   88  A    between atoms: _219  and  _222
REMARK   89  A    between atoms: _222  and  _223
REMARK   90  A    between atoms: _228  and  _230
REMARK   91  A    between atoms: _230  and  _231
REMARK   92  A    between atoms: _230  and  _233
REMARK   93  A    between atoms: _233  and  _234
REMARK   94  A    between atoms: _237  and  _239
REMARK   95  A    between atoms: _239  and  _240
REMARK   96  A    between atoms: _239  and  _242
REMARK   97  A    between atoms: _245  and  _247
REMARK   98  A    between atoms: _247  and  _248
REMARK   99  A    between atoms: _247  and  _250
REMARK  100  A    between atoms: _250  and  _251
REMARK  101  A    between atoms: _257  and  _259
REMARK  102  A    between atoms: _259  and  _260
REMARK  103  A    between atoms: _259  and  _262
REMARK  104  A    between atoms: _265  and  _267
REMARK  105  A    between atoms: _267  and  _268
REMARK  106  A    between atoms: _267  and  _270
REMARK  107  A    between atoms: _273  and  _275
REMARK  108  A    between atoms: _275  and  _276
REMARK  109  A    between atoms: _278  and  _280
REMARK  110  A    between atoms: _280  and  _281
REMARK  111  A    between atoms: _280  and  _283
REMARK  112  A    between atoms: _283  and  _284
REMARK  113  A    between atoms: _287  and  _289
REMARK  114  A    between atoms: _289  and  _290
REMARK  115  A    between atoms: _289  and  _292
REMARK  116  A    between atoms: _292  and  _293
REMARK  117  A    between atoms: _295  and  _297
REMARK  118  A    between atoms: _297  and  _298
REMARK  119  A    between atoms: _297  and  _300
REMARK  120  A    between atoms: _300  and  _301
REMARK  121  A    between atoms: _304  and  _306
REMARK  122  A    between atoms: _306  and  _307
REMARK  123  A    between atoms: _310  and  _312
REMARK  124  A    between atoms: _312  and  _313
REMARK  125  A    between atoms: _312  and  _315
REMARK  126  A    between atoms: _318  and  _320
REMARK  127  A    between atoms: _320  and  _321
REMARK  128  A    between atoms: _320  and  _323
REMARK  129  A    between atoms: _323  and  _324
REMARK  130  A    between atoms: _329  and  _330
REMARK  131  A    between atoms: _332  and  _334
REMARK  132  A    between atoms: _334  and  _335
REMARK  133  A    between atoms: _334  and  _337
REMARK  134  A    between atoms: _337  and  _338
REMARK  135  A    between atoms: _344  and  _346
REMARK  136  A    between atoms: _346  and  _347
REMARK  137  A    between atoms: _346  and  _349
REMARK  138  A    between atoms: _349  and  _350
REMARK  139  A    between atoms: _353  and  _355
REMARK  140  A    between atoms: _355  and  _356
REMARK  141  A    between atoms: _355  and  _358
REMARK  142  A    between atoms: _360  and  _362
REMARK  143  A    between atoms: _362  and  _363
REMARK  144  A    between atoms: _362  and  _365
REMARK  145  A    between atoms: _365  and  _366
REMARK  146  A    between atoms: _371  and  _373
REMARK  147  A    between atoms: _373  and  _374
REMARK  148  A    between atoms: _373  and  _376
REMARK  149  A    between atoms: _376  and  _377
REMARK  150  A    between atoms: _380  and  _382
REMARK  151  A    between atoms: _382  and  _383
REMARK  152  A    between atoms: _382  and  _385
REMARK  153  A    between atoms: _385  and  _386
REMARK  154  A    between atoms: _386  and  _387
REMARK  155  A    between atoms: _390  and  _392
REMARK  156  A    between atoms: _392  and  _393
REMARK  157  A    between atoms: _392  and  _395
REMARK  158  A    between atoms: _395  and  _396
REMARK  159  A    between atoms: _399  and  _401
REMARK  160  A    between atoms: _401  and  _402
REMARK  161  A    between atoms: _401  and  _404
REMARK  162  A    between atoms: _407  and  _409
REMARK  163  A    between atoms: _409  and  _410
REMARK  164  A    between atoms: _412  and  _414
REMARK  165  A    between atoms: _414  and  _415
REMARK  166  A    between atoms: _414  and  _417
REMARK  167  A    between atoms: _420  and  _422
REMARK  168  A    between atoms: _422  and  _423
REMARK  169  A    between atoms: _422  and  _425
REMARK  170  A    between atoms: _425  and  _426
REMARK  171  A    between atoms: _431  and  _433
REMARK  172  A    between atoms: _433  and  _434
REMARK  173  A    between atoms: _433  and  _436
REMARK  174  A    between atoms: _436  and  _437
REMARK  175  A    between atoms: _437  and  _438
REMARK  176  A    between atoms: _443  and  _445
REMARK  177  A    between atoms: _445  and  _446
REMARK  178  A    between atoms: _445  and  _448
REMARK  179  A    between atoms: _448  and  _449
REMARK  180  A    between atoms: _454  and  _455
REMARK  181  A    between atoms: _457  and  _459
REMARK  182  A    between atoms: _459  and  _460
REMARK  183  A    between atoms: _459  and  _462
REMARK  184  A    between atoms: _462  and  _463
REMARK  185  A    between atoms: _465  and  _467
REMARK  186  A    between atoms: _467  and  _468
REMARK  187  A    between atoms: _467  and  _470
REMARK  188  A    between atoms: _470  and  _471
REMARK  189  A    between atoms: _474  and  _476
REMARK  190  A    between atoms: _476  and  _477
REMARK  191  A    between atoms: _476  and  _479
REMARK  192  A    between atoms: _479  and  _480
REMARK  193  A    between atoms: _480  and  _481
REMARK  194  A    between atoms: _484  and  _486
REMARK  195  A    between atoms: _486  and  _487
REMARK  196  A    between atoms: _486  and  _489
REMARK  197  A    between atoms: _489  and  _490
REMARK  198  A    between atoms: _496  and  _498
REMARK  199  A    between atoms: _498  and  _499
REMARK                            x       y       z     vdW  Elec       q    Type
REMARK                         _______ _______ _______ _____ _____    ______ ____
ROOT
ATOM      1  O   HOH     1      -4.456  27.070 -50.300  0.00  0.00    +0.000 OA
ENDROOT
TORSDOF 0
REMARK  Name = ../refined-set-2016/1szd/1szd_pocket.pdb
REMARK  199 active torsions:
REMARK  status: ('A' for Active; 'I' for Inactive)
REMARK    1  A    between atoms: _1  and  _3
REMARK    2  A    between atoms: _3  and  _4
REMARK    3  A    between atoms: _3  and  _6
REMARK    4  A    between atoms: _9  and  _11
REMARK    5  A    between atoms: _11  and  _12
REMARK    6  A    between atoms: _11  and  _14
REMARK    7  A    between atoms: _17  and  _19
REMARK    8  A    between atoms: _19  and  _20
REMARK    9  A    between atoms: _22  and  _24
REMARK   10  A    between atoms: _24  and  _25
REMARK   11  A    between atoms: _28  and  _30
REMARK   12  A    between atoms: _30  and  _31
REMARK   13  A    between atoms: _33  and  _35
REMARK   14  A    between atoms: _35  and  _36
REMARK   15  A    between atoms: _35  and  _38
REMARK   16  A    between atoms: _38  and  _39
REMARK   17  A    between atoms: _42  and  _44
REMARK   18  A    between atoms: _44  and  _45
REMARK   19  A    between atoms: _44  and  _47
REMARK   20  A    between atoms: _47  and  _48
REMARK   21  A    between atoms: _50  and  _52
REMARK   22  A    between atoms: _52  and  _53
REMARK   23  A    between atoms: _52  and  _55
REMARK   24  A    between atoms: _55  and  _56
REMARK   25  A    between atoms: _59  and  _61
REMARK   26  A    between atoms: _61  and  _62
REMARK   27  A    between atoms: _61  and  _64
REMARK   28  A    between atoms: _64  and  _65
REMARK   29  A    between atoms: _67  and  _69
REMARK   30  A    between atoms: _69  and  _70
REMARK   31  A    between atoms: _69  and  _72
REMARK   32  A    between atoms: _74  and  _76
REMARK   33  A    between atoms: _76  and  _77
REMARK   34  A    between atoms: _76  and  _79
REMARK   35  A    between atoms: _79  and  _80
REMARK   36  A    between atoms: _83  and  _85
REMARK   37  A    between atoms: _85  and  _86
REMARK   38  A    between atoms: _85  and  _88
REMARK   39  A    between atoms: _88  and  _89
REMARK   40  A    between atoms: _95  and  _97
REMARK   41  A    between atoms: _97  and  _98
REMARK   42  A    between atoms: _97  and  _100
REMARK   43  A    between atoms: _100  and  _101
REMARK   44  A    between atoms: _101  and  _102
REMARK   45  A    between atoms: _102  and  _103
REMARK   46  A    between atoms: _113  and  _114
REMARK   47  A    between atoms: _119  and  _121
REMARK   48  A    between atoms: _121  and  _122
REMARK   49  A    between atoms: _121  and  _124
REMARK   50  A    between atoms: _124  and  _125
REMARK   51  A    between atoms: _125  and  _126
REMARK   52  A    between atoms: _129  and  _131
REMARK   53  A    between atoms: _131  and  _132
REMARK   54  A    between atoms: _135  and  _137
REMARK   55  A    between atoms: _137  and  _138
REMARK   56  A    between atoms: _137  and  _140
REMARK   57  A    between atoms: _143  and  _145
REMARK   58  A    between atoms: _145  and  _146
REMARK   59  A    between atoms: _145  and  _148
REMARK   60  A    between atoms: _148  and  _149
REMARK   61  A    between atoms: _155  and  _157
REMARK   62  A    between atoms: _157  and  _158
REMARK   63  A    between atoms: _157  and  _160
REMARK   64  A    between atoms: _160  and  _161
REMARK   65  A    between atoms: _164  and  _166
REMARK   66  A    between atoms: _166  and  _167
REMARK   67  A    between atoms: _166  and  _169
REMARK   68  A    between atoms: _169  and  _170
REMARK   69  A    between atoms: _176  and  _178
REMARK   70  A    between atoms: _178  and  _179
REMARK   71  A    between atoms: _178  and  _181
REMARK   72  A    between atoms: _181  and  _182
REMARK   73  A    between atoms: _185  and  _187
REMARK   74  A    between atoms: _187  and  _188
REMARK   75  A    between atoms: _187  and  _190
REMARK   76  A    between atoms: _190  and  _191
REMARK   77  A    between atoms: _191  and  _192
REMARK   78  A    between atoms: _197  and  _199
REMARK   79  A    between atoms: _199  and  _200
REMARK   80  A    between atoms: _199  and  _202
REMARK   81  A    between atoms: _202  and  _203
REMARK   82  A    between atoms: _208  and  _210
REMARK   83  A    between atoms: _210  and  _211
REMARK   84  A    between atoms: _210  and  _213
REMARK   85  A    between atoms: _213  and  _214
REMARK   86  A    between atoms: _217  and  _219
REMARK   87  A    between atoms: _219  and  _220
REMARK   88  A    between atoms: _219  and  _222
REMARK   89  A    between atoms: _222  and  _223
REMARK   90  A    between atoms: _228  and  _230
REMARK   91  A    between atoms: _230  and  _231
REMARK   92  A    between atoms: _230  and  _233
REMARK   93  A    between atoms: _233  and  _234
REMARK   94  A    between atoms: _237  and  _239
REMARK   95  A    between atoms: _239  and  _240
REMARK   96  A    between atoms: _239  and  _242
REMARK   97  A    between atoms: _245  and  _247
REMARK   98  A    between atoms: _247  and  _248
REMARK   99  A    between atoms: _247  and  _250
REMARK  100  A    between atoms: _250  and  _251
REMARK  101  A    between atoms: _257  and  _259
REMARK  102  A    between atoms: _259  and  _260
REMARK  103  A    between atoms: _259  and  _262
REMARK  104  A    between atoms: _265  and  _267
REMARK  105  A    between atoms: _267  and  _268
REMARK  106  A    between atoms: _267  and  _270
REMARK  107  A    between atoms: _273  and  _275
REMARK  108  A    between atoms: _275  and  _276
REMARK  109  A    between atoms: _278  and  _280
REMARK  110  A    between atoms: _280  and  _281
REMARK  111  A    between atoms: _280  and  _283
REMARK  112  A    between atoms: _283  and  _284
REMARK  113  A    between atoms: _287  and  _289
REMARK  114  A    between atoms: _289  and  _290
REMARK  115  A    between atoms: _289  and  _292
REMARK  116  A    between atoms: _292  and  _293
REMARK  117  A    between atoms: _295  and  _297
REMARK  118  A    between atoms: _297  and  _298
REMARK  119  A    between atoms: _297  and  _300
REMARK  120  A    between atoms: _300  and  _301
REMARK  121  A    between atoms: _304  and  _306
REMARK  122  A    between atoms: _306  and  _307
REMARK  123  A    between atoms: _310  and  _312
REMARK  124  A    between atoms: _312  and  _313
REMARK  125  A    between atoms: _312  and  _315
REMARK  126  A    between atoms: _318  and  _320
REMARK  127  A    between atoms: _320  and  _321
REMARK  128  A    between atoms: _320  and  _323
REMARK  129  A    between atoms: _323  and  _324
REMARK  130  A    between atoms: _329  and  _330
REMARK  131  A    between atoms: _332  and  _334
REMARK  132  A    between atoms: _334  and  _335
REMARK  133  A    between atoms: _334  and  _337
REMARK  134  A    between atoms: _337  and  _338
REMARK  135  A    between atoms: _344  and  _346
REMARK  136  A    between atoms: _346  and  _347
REMARK  137  A    between atoms: _346  and  _349
REMARK  138  A    between atoms: _349  and  _350
REMARK  139  A    between atoms: _353  and  _355
REMARK  140  A    between atoms: _355  and  _356
REMARK  141  A    between atoms: _355  and  _358
REMARK  142  A    between atoms: _360  and  _362
REMARK  143  A    between atoms: _362  and  _363
REMARK  144  A    between atoms: _362  and  _365
REMARK  145  A    between atoms: _365  and  _366
REMARK  146  A    between atoms: _371  and  _373
REMARK  147  A    between atoms: _373  and  _374
REMARK  148  A    between atoms: _373  and  _376
REMARK  149  A    between atoms: _376  and  _377
REMARK  150  A    between atoms: _380  and  _382
REMARK  151  A    between atoms: _382  and  _383
REMARK  152  A    between atoms: _382  and  _385
REMARK  153  A    between atoms: _385  and  _386
REMARK  154  A    between atoms: _386  and  _387
REMARK  155  A    between atoms: _390  and  _392
REMARK  156  A    between atoms: _392  and  _393
REMARK  157  A    between atoms: _392  and  _395
REMARK  158  A    between atoms: _395  and  _396
REMARK  159  A    between atoms: _399  and  _401
REMARK  160  A    between atoms: _401  and  _402
REMARK  161  A    between atoms: _401  and  _404
REMARK  162  A    between atoms: _407  and  _409
REMARK  163  A    between atoms: _409  and  _410
REMARK  164  A    between atoms: _412  and  _414
REMARK  165  A    between atoms: _414  and  _415
REMARK  166  A    between atoms: _414  and  _417
REMARK  167  A    between atoms: _420  and  _422
REMARK  168  A    between atoms: _422  and  _423
REMARK  169  A    between atoms: _422  and  _425
REMARK  170  A    between atoms: _425  and  _426
REMARK  171  A    between atoms: _431  and  _433
REMARK  172  A    between atoms: _433  and  _434
REMARK  173  A    between atoms: _433  and  _436
REMARK  174  A    between atoms: _436  and  _437
REMARK  175  A    between atoms: _437  and  _438
REMARK  176  A    between atoms: _443  and  _445
REMARK  177  A    between atoms: _445  and  _446
REMARK  178  A    between atoms: _445  and  _448
REMARK  179  A    between atoms: _448  and  _449
REMARK  180  A    between atoms: _454  and  _455
REMARK  181  A    between atoms: _457  and  _459
REMARK  182  A    between atoms: _459  and  _460
REMARK  183  A    between atoms: _459  and  _462
REMARK  184  A    between atoms: _462  and  _463
REMARK  185  A    between atoms: _465  and  _467
REMARK  186  A    between atoms: _467  and  _468
REMARK  187  A    between atoms: _467  and  _470
REMARK  188  A    between atoms: _470  and  _471
REMARK  189  A    between atoms: _474  and  _476
REMARK  190  A    between atoms: _476  and  _477
REMARK  191  A    between atoms: _476  and  _479
REMARK  192  A    between atoms: _479  and  _480
REMARK  193  A    between atoms: _480  and  _481
REMARK  194  A    between atoms: _484  and  _486
REMARK  195  A    between atoms: _486  and  _487
REMARK  196  A    between atoms: _486  and  _489
REMARK  197  A    between atoms: _489  and  _490
REMARK  198  A    between atoms: _496  and  _498
REMARK  199  A    between atoms: _498  and  _499
REMARK                            x       y       z     vdW  Elec       q    Type
REMARK                         _______ _______ _______ _____ _____    ______ ____
ROOT
ATOM      1  O   HOH     1     -17.185  36.971 -42.635  0.00  0.00    +0.000 OA
ENDROOT
TORSDOF 0
REMARK  Name = ../refined-set-2016/1szd/1szd_pocket.pdb
REMARK  199 active torsions:
REMARK  status: ('A' for Active; 'I' for Inactive)
REMARK    1  A    between atoms: _1  and  _3
REMARK    2  A    between atoms: _3  and  _4
REMARK    3  A    between atoms: _3  and  _6
REMARK    4  A    between atoms: _9  and  _11
REMARK    5  A    between atoms: _11  and  _12
REMARK    6  A    between atoms: _11  and  _14
REMARK    7  A    between atoms: _17  and  _19
REMARK    8  A    between atoms: _19  and  _20
REMARK    9  A    between atoms: _22  and  _24
REMARK   10  A    between atoms: _24  and  _25
REMARK   11  A    between atoms: _28  and  _30
REMARK   12  A    between atoms: _30  and  _31
REMARK   13  A    between atoms: _33  and  _35
REMARK   14  A    between atoms: _35  and  _36
REMARK   15  A    between atoms: _35  and  _38
REMARK   16  A    between atoms: _38  and  _39
REMARK   17  A    between atoms: _42  and  _44
REMARK   18  A    between atoms: _44  and  _45
REMARK   19  A    between atoms: _44  and  _47
REMARK   20  A    between atoms: _47  and  _48
REMARK   21  A    between atoms: _50  and  _52
REMARK   22  A    between atoms: _52  and  _53
REMARK   23  A    between atoms: _52  and  _55
REMARK   24  A    between atoms: _55  and  _56
REMARK   25  A    between atoms: _59  and  _61
REMARK   26  A    between atoms: _61  and  _62
REMARK   27  A    between atoms: _61  and  _64
REMARK   28  A    between atoms: _64  and  _65
REMARK   29  A    between atoms: _67  and  _69
REMARK   30  A    between atoms: _69  and  _70
REMARK   31  A    between atoms: _69  and  _72
REMARK   32  A    between atoms: _74  and  _76
REMARK   33  A    between atoms: _76  and  _77
REMARK   34  A    between atoms: _76  and  _79
REMARK   35  A    between atoms: _79  and  _80
REMARK   36  A    between atoms: _83  and  _85
REMARK   37  A    between atoms: _85  and  _86
REMARK   38  A    between atoms: _85  and  _88
REMARK   39  A    between atoms: _88  and  _89
REMARK   40  A    between atoms: _95  and  _97
REMARK   41  A    between atoms: _97  and  _98
REMARK   42  A    between atoms: _97  and  _100
REMARK   43  A    between atoms: _100  and  _101
REMARK   44  A    between atoms: _101  and  _102
REMARK   45  A    between atoms: _102  and  _103
REMARK   46  A    between atoms: _113  and  _114
REMARK   47  A    between atoms: _119  and  _121
REMARK   48  A    between atoms: _121  and  _122
REMARK   49  A    between atoms: _121  and  _124
REMARK   50  A    between atoms: _124  and  _125
REMARK   51  A    between atoms: _125  and  _126
REMARK   52  A    between atoms: _129  and  _131
REMARK   53  A    between atoms: _131  and  _132
REMARK   54  A    between atoms: _135  and  _137
REMARK   55  A    between atoms: _137  and  _138
REMARK   56  A    between atoms: _137  and  _140
REMARK   57  A    between atoms: _143  and  _145
REMARK   58  A    between atoms: _145  and  _146
REMARK   59  A    between atoms: _145  and  _148
REMARK   60  A    between atoms: _148  and  _149
REMARK   61  A    between atoms: _155  and  _157
REMARK   62  A    between atoms: _157  and  _158
REMARK   63  A    between atoms: _157  and  _160
REMARK   64  A    between atoms: _160  and  _161
REMARK   65  A    between atoms: _164  and  _166
REMARK   66  A    between atoms: _166  and  _167
REMARK   67  A    between atoms: _166  and  _169
REMARK   68  A    between atoms: _169  and  _170
REMARK   69  A    between atoms: _176  and  _178
REMARK   70  A    between atoms: _178  and  _179
REMARK   71  A    between atoms: _178  and  _181
REMARK   72  A    between atoms: _181  and  _182
REMARK   73  A    between atoms: _185  and  _187
REMARK   74  A    between atoms: _187  and  _188
REMARK   75  A    between atoms: _187  and  _190
REMARK   76  A    between atoms: _190  and  _191
REMARK   77  A    between atoms: _191  and  _192
REMARK   78  A    between atoms: _197  and  _199
REMARK   79  A    between atoms: _199  and  _200
REMARK   80  A    between atoms: _199  and  _202
REMARK   81  A    between atoms: _202  and  _203
REMARK   82  A    between atoms: _208  and  _210
REMARK   83  A    between atoms: _210  and  _211
REMARK   84  A    between atoms: _210  and  _213
REMARK   85  A    between atoms: _213  and  _214
REMARK   86  A    between atoms: _217  and  _219
REMARK   87  A    between atoms: _219  and  _220
REMARK   88  A    between atoms: _219  and  _222
REMARK   89  A    between atoms: _222  and  _223
REMARK   90  A    between atoms: _228  and  _230
REMARK   91  A    between atoms: _230  and  _231
REMARK   92  A    between atoms: _230  and  _233
REMARK   93  A    between atoms: _233  and  _234
REMARK   94  A    between atoms: _237  and  _239
REMARK   95  A    between atoms: _239  and  _240
REMARK   96  A    between atoms: _239  and  _242
REMARK   97  A    between atoms: _245  and  _247
REMARK   98  A    between atoms: _247  and  _248
REMARK   99  A    between atoms: _247  and  _250
REMARK  100  A    between atoms: _250  and  _251
REMARK  101  A    between atoms: _257  and  _259
REMARK  102  A    between atoms: _259  and  _260
REMARK  103  A    between atoms: _259  and  _262
REMARK  104  A    between atoms: _265  and  _267
REMARK  105  A    between atoms: _267  and  _268
REMARK  106  A    between atoms: _267  and  _270
REMARK  107  A    between atoms: _273  and  _275
REMARK  108  A    between atoms: _275  and  _276
REMARK  109  A    between atoms: _278  and  _280
REMARK  110  A    between atoms: _280  and  _281
REMARK  111  A    between atoms: _280  and  _283
REMARK  112  A    between atoms: _283  and  _284
REMARK  113  A    between atoms: _287  and  _289
REMARK  114  A    between atoms: _289  and  _290
REMARK  115  A    between atoms: _289  and  _292
REMARK  116  A    between atoms: _292  and  _293
REMARK  117  A    between atoms: _295  and  _297
REMARK  118  A    between atoms: _297  and  _298
REMARK  119  A    between atoms: _297  and  _300
REMARK  120  A    between atoms: _300  and  _301
REMARK  121  A    between atoms: _304  and  _306
REMARK  122  A    between atoms: _306  and  _307
REMARK  123  A    between atoms: _310  and  _312
REMARK  124  A    between atoms: _312  and  _313
REMARK  125  A    between atoms: _312  and  _315
REMARK  126  A    between atoms: _318  and  _320
REMARK  127  A    between atoms: _320  and  _321
REMARK  128  A    between atoms: _320  and  _323
REMARK  129  A    between atoms: _323  and  _324
REMARK  130  A    between atoms: _329  and  _330
REMARK  131  A    between atoms: _332  and  _334
REMARK  132  A    between atoms: _334  and  _335
REMARK  133  A    between atoms: _334  and  _337
REMARK  134  A    between atoms: _337  and  _338
REMARK  135  A    between atoms: _344  and  _346
REMARK  136  A    between atoms: _346  and  _347
REMARK  137  A    between atoms: _346  and  _349
REMARK  138  A    between atoms: _349  and  _350
REMARK  139  A    between atoms: _353  and  _355
REMARK  140  A    between atoms: _355  and  _356
REMARK  141  A    between atoms: _355  and  _358
REMARK  142  A    between atoms: _360  and  _362
REMARK  143  A    between atoms: _362  and  _363
REMARK  144  A    between atoms: _362  and  _365
REMARK  145  A    between atoms: _365  and  _366
REMARK  146  A    between atoms: _371  and  _373
REMARK  147  A    between atoms: _373  and  _374
REMARK  148  A    between atoms: _373  and  _376
REMARK  149  A    between atoms: _376  and  _377
REMARK  150  A    between atoms: _380  and  _382
REMARK  151  A    between atoms: _382  and  _383
REMARK  152  A    between atoms: _382  and  _385
REMARK  153  A    between atoms: _385  and  _386
REMARK  154  A    between atoms: _386  and  _387
REMARK  155  A    between atoms: _390  and  _392
REMARK  156  A    between atoms: _392  and  _393
REMARK  157  A    between atoms: _392  and  _395
REMARK  158  A    between atoms: _395  and  _396
REMARK  159  A    between atoms: _399  and  _401
REMARK  160  A    between atoms: _401  and  _402
REMARK  161  A    between atoms: _401  and  _404
REMARK  162  A    between atoms: _407  and  _409
REMARK  163  A    between atoms: _409  and  _410
REMARK  164  A    between atoms: _412  and  _414
REMARK  165  A    between atoms: _414  and  _415
REMARK  166  A    between atoms: _414  and  _417
REMARK  167  A    between atoms: _420  and  _422
REMARK  168  A    between atoms: _422  and  _423
REMARK  169  A    between atoms: _422  and  _425
REMARK  170  A    between atoms: _425  and  _426
REMARK  171  A    between atoms: _431  and  _433
REMARK  172  A    between atoms: _433  and  _434
REMARK  173  A    between atoms: _433  and  _436
REMARK  174  A    between atoms: _436  and  _437
REMARK  175  A    between atoms: _437  and  _438
REMARK  176  A    between atoms: _443  and  _445
REMARK  177  A    between atoms: _445  and  _446
REMARK  178  A    between atoms: _445  and  _448
REMARK  179  A    between atoms: _448  and  _449
REMARK  180  A    between atoms: _454  and  _455
REMARK  181  A    between atoms: _457  and  _459
REMARK  182  A    between atoms: _459  and  _460
REMARK  183  A    between atoms: _459  and  _462
REMARK  184  A    between atoms: _462  and  _463
REMARK  185  A    between atoms: _465  and  _467
REMARK  186  A    between atoms: _467  and  _468
REMARK  187  A    between atoms: _467  and  _470
REMARK  188  A    between atoms: _470  and  _471
REMARK  189  A    between atoms: _474  and  _476
REMARK  190  A    between atoms: _476  and  _477
REMARK  191  A    between atoms: _476  and  _479
REMARK  192  A    between atoms: _479  and  _480
REMARK  193  A    between atoms: _480  and  _481
REMARK  194  A    between atoms: _484  and  _486
REMARK  195  A    between atoms: _486  and  _487
REMARK  196  A    between atoms: _486  and  _489
REMARK  197  A    between atoms: _489  and  _490
REMARK  198  A    between atoms: _496  and  _498
REMARK  199  A    between atoms: _498  and  _499
REMARK                            x       y       z     vdW  Elec       q    Type
REMARK                         _______ _______ _______ _____ _____    ______ ____
ROOT
ATOM      1  O   HOH     1     -16.356  25.870 -39.173  0.00  0.00    +0.000 OA
ENDROOT
TORSDOF 0
REMARK  Name = ../refined-set-2016/1szd/1szd_pocket.pdb
REMARK  199 active torsions:
REMARK  status: ('A' for Active; 'I' for Inactive)
REMARK    1  A    between atoms: _1  and  _3
REMARK    2  A    between atoms: _3  and  _4
REMARK    3  A    between atoms: _3  and  _6
REMARK    4  A    between atoms: _9  and  _11
REMARK    5  A    between atoms: _11  and  _12
REMARK    6  A    between atoms: _11  and  _14
REMARK    7  A    between atoms: _17  and  _19
REMARK    8  A    between atoms: _19  and  _20
REMARK    9  A    between atoms: _22  and  _24
REMARK   10  A    between atoms: _24  and  _25
REMARK   11  A    between atoms: _28  and  _30
REMARK   12  A    between atoms: _30  and  _31
REMARK   13  A    between atoms: _33  and  _35
REMARK   14  A    between atoms: _35  and  _36
REMARK   15  A    between atoms: _35  and  _38
REMARK   16  A    between atoms: _38  and  _39
REMARK   17  A    between atoms: _42  and  _44
REMARK   18  A    between atoms: _44  and  _45
REMARK   19  A    between atoms: _44  and  _47
REMARK   20  A    between atoms: _47  and  _48
REMARK   21  A    between atoms: _50  and  _52
REMARK   22  A    between atoms: _52  and  _53
REMARK   23  A    between atoms: _52  and  _55
REMARK   24  A    between atoms: _55  and  _56
REMARK   25  A    between atoms: _59  and  _61
REMARK   26  A    between atoms: _61  and  _62
REMARK   27  A    between atoms: _61  and  _64
REMARK   28  A    between atoms: _64  and  _65
REMARK   29  A    between atoms: _67  and  _69
REMARK   30  A    between atoms: _69  and  _70
REMARK   31  A    between atoms: _69  and  _72
REMARK   32  A    between atoms: _74  and  _76
REMARK   33  A    between atoms: _76  and  _77
REMARK   34  A    between atoms: _76  and  _79
REMARK   35  A    between atoms: _79  and  _80
REMARK   36  A    between atoms: _83  and  _85
REMARK   37  A    between atoms: _85  and  _86
REMARK   38  A    between atoms: _85  and  _88
REMARK   39  A    between atoms: _88  and  _89
REMARK   40  A    between atoms: _95  and  _97
REMARK   41  A    between atoms: _97  and  _98
REMARK   42  A    between atoms: _97  and  _100
REMARK   43  A    between atoms: _100  and  _101
REMARK   44  A    between atoms: _101  and  _102
REMARK   45  A    between atoms: _102  and  _103
REMARK   46  A    between atoms: _113  and  _114
REMARK   47  A    between atoms: _119  and  _121
REMARK   48  A    between atoms: _121  and  _122
REMARK   49  A    between atoms: _121  and  _124
REMARK   50  A    between atoms: _124  and  _125
REMARK   51  A    between atoms: _125  and  _126
REMARK   52  A    between atoms: _129  and  _131
REMARK   53  A    between atoms: _131  and  _132
REMARK   54  A    between atoms: _135  and  _137
REMARK   55  A    between atoms: _137  and  _138
REMARK   56  A    between atoms: _137  and  _140
REMARK   57  A    between atoms: _143  and  _145
REMARK   58  A    between atoms: _145  and  _146
REMARK   59  A    between atoms: _145  and  _148
REMARK   60  A    between atoms: _148  and  _149
REMARK   61  A    between atoms: _155  and  _157
REMARK   62  A    between atoms: _157  and  _158
REMARK   63  A    between atoms: _157  and  _160
REMARK   64  A    between atoms: _160  and  _161
REMARK   65  A    between atoms: _164  and  _166
REMARK   66  A    between atoms: _166  and  _167
REMARK   67  A    between atoms: _166  and  _169
REMARK   68  A    between atoms: _169  and  _170
REMARK   69  A    between atoms: _176  and  _178
REMARK   70  A    between atoms: _178  and  _179
REMARK   71  A    between atoms: _178  and  _181
REMARK   72  A    between atoms: _181  and  _182
REMARK   73  A    between atoms: _185  and  _187
REMARK   74  A    between atoms: _187  and  _188
REMARK   75  A    between atoms: _187  and  _190
REMARK   76  A    between atoms: _190  and  _191
REMARK   77  A    between atoms: _191  and  _192
REMARK   78  A    between atoms: _197  and  _199
REMARK   79  A    between atoms: _199  and  _200
REMARK   80  A    between atoms: _199  and  _202
REMARK   81  A    between atoms: _202  and  _203
REMARK   82  A    between atoms: _208  and  _210
REMARK   83  A    between atoms: _210  and  _211
REMARK   84  A    between atoms: _210  and  _213
REMARK   85  A    between atoms: _213  and  _214
REMARK   86  A    between atoms: _217  and  _219
REMARK   87  A    between atoms: _219  and  _220
REMARK   88  A    between atoms: _219  and  _222
REMARK   89  A    between atoms: _222  and  _223
REMARK   90  A    between atoms: _228  and  _230
REMARK   91  A    between atoms: _230  and  _231
REMARK   92  A    between atoms: _230  and  _233
REMARK   93  A    between atoms: _233  and  _234
REMARK   94  A    between atoms: _237  and  _239
REMARK   95  A    between atoms: _239  and  _240
REMARK   96  A    between atoms: _239  and  _242
REMARK   97  A    between atoms: _245  and  _247
REMARK   98  A    between atoms: _247  and  _248
REMARK   99  A    between atoms: _247  and  _250
REMARK  100  A    between atoms: _250  and  _251
REMARK  101  A    between atoms: _257  and  _259
REMARK  102  A    between atoms: _259  and  _260
REMARK  103  A    between atoms: _259  and  _262
REMARK  104  A    between atoms: _265  and  _267
REMARK  105  A    between atoms: _267  and  _268
REMARK  106  A    between atoms: _267  and  _270
REMARK  107  A    between atoms: _273  and  _275
REMARK  108  A    between atoms: _275  and  _276
REMARK  109  A    between atoms: _278  and  _280
REMARK  110  A    between atoms: _280  and  _281
REMARK  111  A    between atoms: _280  and  _283
REMARK  112  A    between atoms: _283  and  _284
REMARK  113  A    between atoms: _287  and  _289
REMARK  114  A    between atoms: _289  and  _290
REMARK  115  A    between atoms: _289  and  _292
REMARK  116  A    between atoms: _292  and  _293
REMARK  117  A    between atoms: _295  and  _297
REMARK  118  A    between atoms: _297  and  _298
REMARK  119  A    between atoms: _297  and  _300
REMARK  120  A    between atoms: _300  and  _301
REMARK  121  A    between atoms: _304  and  _306
REMARK  122  A    between atoms: _306  and  _307
REMARK  123  A    between atoms: _310  and  _312
REMARK  124  A    between atoms: _312  and  _313
REMARK  125  A    between atoms: _312  and  _315
REMARK  126  A    between atoms: _318  and  _320
REMARK  127  A    between atoms: _320  and  _321
REMARK  128  A    between atoms: _320  and  _323
REMARK  129  A    between atoms: _323  and  _324
REMARK  130  A    between atoms: _329  and  _330
REMARK  131  A    between atoms: _332  and  _334
REMARK  132  A    between atoms: _334  and  _335
REMARK  133  A    between atoms: _334  and  _337
REMARK  134  A    between atoms: _337  and  _338
REMARK  135  A    between atoms: _344  and  _346
REMARK  136  A    between atoms: _346  and  _347
REMARK  137  A    between atoms: _346  and  _349
REMARK  138  A    between atoms: _349  and  _350
REMARK  139  A    between atoms: _353  and  _355
REMARK  140  A    between atoms: _355  and  _356
REMARK  141  A    between atoms: _355  and  _358
REMARK  142  A    between atoms: _360  and  _362
REMARK  143  A    between atoms: _362  and  _363
REMARK  144  A    between atoms: _362  and  _365
REMARK  145  A    between atoms: _365  and  _366
REMARK  146  A    between atoms: _371  and  _373
REMARK  147  A    between atoms: _373  and  _374
REMARK  148  A    between atoms: _373  and  _376
REMARK  149  A    between atoms: _376  and  _377
REMARK  150  A    between atoms: _380  and  _382
REMARK  151  A    between atoms: _382  and  _383
REMARK  152  A    between atoms: _382  and  _385
REMARK  153  A    between atoms: _385  and  _386
REMARK  154  A    between atoms: _386  and  _387
REMARK  155  A    between atoms: _390  and  _392
REMARK  156  A    between atoms: _392  and  _393
REMARK  157  A    between atoms: _392  and  _395
REMARK  158  A    between atoms: _395  and  _396
REMARK  159  A    between atoms: _399  and  _401
REMARK  160  A    between atoms: _401  and  _402
REMARK  161  A    between atoms: _401  and  _404
REMARK  162  A    between atoms: _407  and  _409
REMARK  163  A    between atoms: _409  and  _410
REMARK  164  A    between atoms: _412  and  _414
REMARK  165  A    between atoms: _414  and  _415
REMARK  166  A    between atoms: _414  and  _417
REMARK  167  A    between atoms: _420  and  _422
REMARK  168  A    between atoms: _422  and  _423
REMARK  169  A    between atoms: _422  and  _425
REMARK  170  A    between atoms: _425  and  _426
REMARK  171  A    between atoms: _431  and  _433
REMARK  172  A    between atoms: _433  and  _434
REMARK  173  A    between atoms: _433  and  _436
REMARK  174  A    between atoms: _436  and  _437
REMARK  175  A    between atoms: _437  and  _438
REMARK  176  A    between atoms: _443  and  _445
REMARK  177  A    between atoms: _445  and  _446
REMARK  178  A    between atoms: _445  and  _448
REMARK  179  A    between atoms: _448  and  _449
REMARK  180  A    between atoms: _454  and  _455
REMARK  181  A    between atoms: _457  and  _459
REMARK  182  A    between atoms: _459  and  _460
REMARK  183  A    between atoms: _459  and  _462
REMARK  184  A    between atoms: _462  and  _463
REMARK  185  A    between atoms: _465  and  _467
REMARK  186  A    between atoms: _467  and  _468
REMARK  187  A    between atoms: _467  and  _470
REMARK  188  A    between atoms: _470  and  _471
REMARK  189  A    between atoms: _474  and  _476
REMARK  190  A    between atoms: _476  and  _477
REMARK  191  A    between atoms: _476  and  _479
REMARK  192  A    between atoms: _479  and  _480
REMARK  193  A    between atoms: _480  and  _481
REMARK  194  A    between atoms: _484  and  _486
REMARK  195  A    between atoms: _486  and  _487
REMARK  196  A    between atoms: _486  and  _489
REMARK  197  A    between atoms: _489  and  _490
REMARK  198  A    between atoms: _496  and  _498
REMARK  199  A    between atoms: _498  and  _499
REMARK                            x       y       z     vdW  Elec       q    Type
REMARK                         _______ _______ _______ _____ _____    ______ ____
ROOT
ATOM      1  O   HOH     1      -8.047  28.626 -46.655  0.00  0.00    +0.000 OA
ENDROOT
TORSDOF 0
REMARK  Name = ../refined-set-2016/1szd/1szd_pocket.pdb
REMARK  199 active torsions:
REMARK  status: ('A' for Active; 'I' for Inactive)
REMARK    1  A    between atoms: _1  and  _3
REMARK    2  A    between atoms: _3  and  _4
REMARK    3  A    between atoms: _3  and  _6
REMARK    4  A    between atoms: _9  and  _11
REMARK    5  A    between atoms: _11  and  _12
REMARK    6  A    between atoms: _11  and  _14
REMARK    7  A    between atoms: _17  and  _19
REMARK    8  A    between atoms: _19  and  _20
REMARK    9  A    between atoms: _22  and  _24
REMARK   10  A    between atoms: _24  and  _25
REMARK   11  A    between atoms: _28  and  _30
REMARK   12  A    between atoms: _30  and  _31
REMARK   13  A    between atoms: _33  and  _35
REMARK   14  A    between atoms: _35  and  _36
REMARK   15  A    between atoms: _35  and  _38
REMARK   16  A    between atoms: _38  and  _39
REMARK   17  A    between atoms: _42  and  _44
REMARK   18  A    between atoms: _44  and  _45
REMARK   19  A    between atoms: _44  and  _47
REMARK   20  A    between atoms: _47  and  _48
REMARK   21  A    between atoms: _50  and  _52
REMARK   22  A    between atoms: _52  and  _53
REMARK   23  A    between atoms: _52  and  _55
REMARK   24  A    between atoms: _55  and  _56
REMARK   25  A    between atoms: _59  and  _61
REMARK   26  A    between atoms: _61  and  _62
REMARK   27  A    between atoms: _61  and  _64
REMARK   28  A    between atoms: _64  and  _65
REMARK   29  A    between atoms: _67  and  _69
REMARK   30  A    between atoms: _69  and  _70
REMARK   31  A    between atoms: _69  and  _72
REMARK   32  A    between atoms: _74  and  _76
REMARK   33  A    between atoms: _76  and  _77
REMARK   34  A    between atoms: _76  and  _79
REMARK   35  A    between atoms: _79  and  _80
REMARK   36  A    between atoms: _83  and  _85
REMARK   37  A    between atoms: _85  and  _86
REMARK   38  A    between atoms: _85  and  _88
REMARK   39  A    between atoms: _88  and  _89
REMARK   40  A    between atoms: _95  and  _97
REMARK   41  A    between atoms: _97  and  _98
REMARK   42  A    between atoms: _97  and  _100
REMARK   43  A    between atoms: _100  and  _101
REMARK   44  A    between atoms: _101  and  _102
REMARK   45  A    between atoms: _102  and  _103
REMARK   46  A    between atoms: _113  and  _114
REMARK   47  A    between atoms: _119  and  _121
REMARK   48  A    between atoms: _121  and  _122
REMARK   49  A    between atoms: _121  and  _124
REMARK   50  A    between atoms: _124  and  _125
REMARK   51  A    between atoms: _125  and  _126
REMARK   52  A    between atoms: _129  and  _131
REMARK   53  A    between atoms: _131  and  _132
REMARK   54  A    between atoms: _135  and  _137
REMARK   55  A    between atoms: _137  and  _138
REMARK   56  A    between atoms: _137  and  _140
REMARK   57  A    between atoms: _143  and  _145
REMARK   58  A    between atoms: _145  and  _146
REMARK   59  A    between atoms: _145  and  _148
REMARK   60  A    between atoms: _148  and  _149
REMARK   61  A    between atoms: _155  and  _157
REMARK   62  A    between atoms: _157  and  _158
REMARK   63  A    between atoms: _157  and  _160
REMARK   64  A    between atoms: _160  and  _161
REMARK   65  A    between atoms: _164  and  _166
REMARK   66  A    between atoms: _166  and  _167
REMARK   67  A    between atoms: _166  and  _169
REMARK   68  A    between atoms: _169  and  _170
REMARK   69  A    between atoms: _176  and  _178
REMARK   70  A    between atoms: _178  and  _179
REMARK   71  A    between atoms: _178  and  _181
REMARK   72  A    between atoms: _181  and  _182
REMARK   73  A    between atoms: _185  and  _187
REMARK   74  A    between atoms: _187  and  _188
REMARK   75  A    between atoms: _187  and  _190
REMARK   76  A    between atoms: _190  and  _191
REMARK   77  A    between atoms: _191  and  _192
REMARK   78  A    between atoms: _197  and  _199
REMARK   79  A    between atoms: _199  and  _200
REMARK   80  A    between atoms: _199  and  _202
REMARK   81  A    between atoms: _202  and  _203
REMARK   82  A    between atoms: _208  and  _210
REMARK   83  A    between atoms: _210  and  _211
REMARK   84  A    between atoms: _210  and  _213
REMARK   85  A    between atoms: _213  and  _214
REMARK   86  A    between atoms: _217  and  _219
REMARK   87  A    between atoms: _219  and  _220
REMARK   88  A    between atoms: _219  and  _222
REMARK   89  A    between atoms: _222  and  _223
REMARK   90  A    between atoms: _228  and  _230
REMARK   91  A    between atoms: _230  and  _231
REMARK   92  A    between atoms: _230  and  _233
REMARK   93  A    between atoms: _233  and  _234
REMARK   94  A    between atoms: _237  and  _239
REMARK   95  A    between atoms: _239  and  _240
REMARK   96  A    between atoms: _239  and  _242
REMARK   97  A    between atoms: _245  and  _247
REMARK   98  A    between atoms: _247  and  _248
REMARK   99  A    between atoms: _247  and  _250
REMARK  100  A    between atoms: _250  and  _251
REMARK  101  A    between atoms: _257  and  _259
REMARK  102  A    between atoms: _259  and  _260
REMARK  103  A    between atoms: _259  and  _262
REMARK  104  A    between atoms: _265  and  _267
REMARK  105  A    between atoms: _267  and  _268
REMARK  106  A    between atoms: _267  and  _270
REMARK  107  A    between atoms: _273  and  _275
REMARK  108  A    between atoms: _275  and  _276
REMARK  109  A    between atoms: _278  and  _280
REMARK  110  A    between atoms: _280  and  _281
REMARK  111  A    between atoms: _280  and  _283
REMARK  112  A    between atoms: _283  and  _284
REMARK  113  A    between atoms: _287  and  _289
REMARK  114  A    between atoms: _289  and  _290
REMARK  115  A    between atoms: _289  and  _292
REMARK  116  A    between atoms: _292  and  _293
REMARK  117  A    between atoms: _295  and  _297
REMARK  118  A    between atoms: _297  and  _298
REMARK  119  A    between atoms: _297  and  _300
REMARK  120  A    between atoms: _300  and  _301
REMARK  121  A    between atoms: _304  and  _306
REMARK  122  A    between atoms: _306  and  _307
REMARK  123  A    between atoms: _310  and  _312
REMARK  124  A    between atoms: _312  and  _313
REMARK  125  A    between atoms: _312  and  _315
REMARK  126  A    between atoms: _318  and  _320
REMARK  127  A    between atoms: _320  and  _321
REMARK  128  A    between atoms: _320  and  _323
REMARK  129  A    between atoms: _323  and  _324
REMARK  130  A    between atoms: _329  and  _330
REMARK  131  A    between atoms: _332  and  _334
REMARK  132  A    between atoms: _334  and  _335
REMARK  133  A    between atoms: _334  and  _337
REMARK  134  A    between atoms: _337  and  _338
REMARK  135  A    between atoms: _344  and  _346
REMARK  136  A    between atoms: _346  and  _347
REMARK  137  A    between atoms: _346  and  _349
REMARK  138  A    between atoms: _349  and  _350
REMARK  139  A    between atoms: _353  and  _355
REMARK  140  A    between atoms: _355  and  _356
REMARK  141  A    between atoms: _355  and  _358
REMARK  142  A    between atoms: _360  and  _362
REMARK  143  A    between atoms: _362  and  _363
REMARK  144  A    between atoms: _362  and  _365
REMARK  145  A    between atoms: _365  and  _366
REMARK  146  A    between atoms: _371  and  _373
REMARK  147  A    between atoms: _373  and  _374
REMARK  148  A    between atoms: _373  and  _376
REMARK  149  A    between atoms: _376  and  _377
REMARK  150  A    between atoms: _380  and  _382
REMARK  151  A    between atoms: _382  and  _383
REMARK  152  A    between atoms: _382  and  _385
REMARK  153  A    between atoms: _385  and  _386
REMARK  154  A    between atoms: _386  and  _387
REMARK  155  A    between atoms: _390  and  _392
REMARK  156  A    between atoms: _392  and  _393
REMARK  157  A    between atoms: _392  and  _395
REMARK  158  A    between atoms: _395  and  _396
REMARK  159  A    between atoms: _399  and  _401
REMARK  160  A    between atoms: _401  and  _402
REMARK  161  A    between atoms: _401  and  _404
REMARK  162  A    between atoms: _407  and  _409
REMARK  163  A    between atoms: _409  and  _410
REMARK  164  A    between atoms: _412  and  _414
REMARK  165  A    between atoms: _414  and  _415
REMARK  166  A    between atoms: _414  and  _417
REMARK  167  A    between atoms: _420  and  _422
REMARK  168  A    between atoms: _422  and  _423
REMARK  169  A    between atoms: _422  and  _425
REMARK  170  A    between atoms: _425  and  _426
REMARK  171  A    between atoms: _431  and  _433
REMARK  172  A    between atoms: _433  and  _434
REMARK  173  A    between atoms: _433  and  _436
REMARK  174  A    between atoms: _436  and  _437
REMARK  175  A    between atoms: _437  and  _438
REMARK  176  A    between atoms: _443  and  _445
REMARK  177  A    between atoms: _445  and  _446
REMARK  178  A    between atoms: _445  and  _448
REMARK  179  A    between atoms: _448  and  _449
REMARK  180  A    between atoms: _454  and  _455
REMARK  181  A    between atoms: _457  and  _459
REMARK  182  A    between atoms: _459  and  _460
REMARK  183  A    between atoms: _459  and  _462
REMARK  184  A    between atoms: _462  and  _463
REMARK  185  A    between atoms: _465  and  _467
REMARK  186  A    between atoms: _467  and  _468
REMARK  187  A    between atoms: _467  and  _470
REMARK  188  A    between atoms: _470  and  _471
REMARK  189  A    between atoms: _474  and  _476
REMARK  190  A    between atoms: _476  and  _477
REMARK  191  A    between atoms: _476  and  _479
REMARK  192  A    between atoms: _479  and  _480
REMARK  193  A    between atoms: _480  and  _481
REMARK  194  A    between atoms: _484  and  _486
REMARK  195  A    between atoms: _486  and  _487
REMARK  196  A    between atoms: _486  and  _489
REMARK  197  A    between atoms: _489  and  _490
REMARK  198  A    between atoms: _496  and  _498
REMARK  199  A    between atoms: _498  and  _499
REMARK                            x       y       z     vdW  Elec       q    Type
REMARK                         _______ _______ _______ _____ _____    ______ ____
ROOT
ATOM      1  O   HOH     1      -6.542  25.619 -44.269  0.00  0.00    +0.000 OA
ENDROOT
TORSDOF 0
REMARK  Name = ../refined-set-2016/1szd/1szd_pocket.pdb
REMARK  199 active torsions:
REMARK  status: ('A' for Active; 'I' for Inactive)
REMARK    1  A    between atoms: _1  and  _3
REMARK    2  A    between atoms: _3  and  _4
REMARK    3  A    between atoms: _3  and  _6
REMARK    4  A    between atoms: _9  and  _11
REMARK    5  A    between atoms: _11  and  _12
REMARK    6  A    between atoms: _11  and  _14
REMARK    7  A    between atoms: _17  and  _19
REMARK    8  A    between atoms: _19  and  _20
REMARK    9  A    between atoms: _22  and  _24
REMARK   10  A    between atoms: _24  and  _25
REMARK   11  A    between atoms: _28  and  _30
REMARK   12  A    between atoms: _30  and  _31
REMARK   13  A    between atoms: _33  and  _35
REMARK   14  A    between atoms: _35  and  _36
REMARK   15  A    between atoms: _35  and  _38
REMARK   16  A    between atoms: _38  and  _39
REMARK   17  A    between atoms: _42  and  _44
REMARK   18  A    between atoms: _44  and  _45
REMARK   19  A    between atoms: _44  and  _47
REMARK   20  A    between atoms: _47  and  _48
REMARK   21  A    between atoms: _50  and  _52
REMARK   22  A    between atoms: _52  and  _53
REMARK   23  A    between atoms: _52  and  _55
REMARK   24  A    between atoms: _55  and  _56
REMARK   25  A    between atoms: _59  and  _61
REMARK   26  A    between atoms: _61  and  _62
REMARK   27  A    between atoms: _61  and  _64
REMARK   28  A    between atoms: _64  and  _65
REMARK   29  A    between atoms: _67  and  _69
REMARK   30  A    between atoms: _69  and  _70
REMARK   31  A    between atoms: _69  and  _72
REMARK   32  A    between atoms: _74  and  _76
REMARK   33  A    between atoms: _76  and  _77
REMARK   34  A    between atoms: _76  and  _79
REMARK   35  A    between atoms: _79  and  _80
REMARK   36  A    between atoms: _83  and  _85
REMARK   37  A    between atoms: _85  and  _86
REMARK   38  A    between atoms: _85  and  _88
REMARK   39  A    between atoms: _88  and  _89
REMARK   40  A    between atoms: _95  and  _97
REMARK   41  A    between atoms: _97  and  _98
REMARK   42  A    between atoms: _97  and  _100
REMARK   43  A    between atoms: _100  and  _101
REMARK   44  A    between atoms: _101  and  _102
REMARK   45  A    between atoms: _102  and  _103
REMARK   46  A    between atoms: _113  and  _114
REMARK   47  A    between atoms: _119  and  _121
REMARK   48  A    between atoms: _121  and  _122
REMARK   49  A    between atoms: _121  and  _124
REMARK   50  A    between atoms: _124  and  _125
REMARK   51  A    between atoms: _125  and  _126
REMARK   52  A    between atoms: _129  and  _131
REMARK   53  A    between atoms: _131  and  _132
REMARK   54  A    between atoms: _135  and  _137
REMARK   55  A    between atoms: _137  and  _138
REMARK   56  A    between atoms: _137  and  _140
REMARK   57  A    between atoms: _143  and  _145
REMARK   58  A    between atoms: _145  and  _146
REMARK   59  A    between atoms: _145  and  _148
REMARK   60  A    between atoms: _148  and  _149
REMARK   61  A    between atoms: _155  and  _157
REMARK   62  A    between atoms: _157  and  _158
REMARK   63  A    between atoms: _157  and  _160
REMARK   64  A    between atoms: _160  and  _161
REMARK   65  A    between atoms: _164  and  _166
REMARK   66  A    between atoms: _166  and  _167
REMARK   67  A    between atoms: _166  and  _169
REMARK   68  A    between atoms: _169  and  _170
REMARK   69  A    between atoms: _176  and  _178
REMARK   70  A    between atoms: _178  and  _179
REMARK   71  A    between atoms: _178  and  _181
REMARK   72  A    between atoms: _181  and  _182
REMARK   73  A    between atoms: _185  and  _187
REMARK   74  A    between atoms: _187  and  _188
REMARK   75  A    between atoms: _187  and  _190
REMARK   76  A    between atoms: _190  and  _191
REMARK   77  A    between atoms: _191  and  _192
REMARK   78  A    between atoms: _197  and  _199
REMARK   79  A    between atoms: _199  and  _200
REMARK   80  A    between atoms: _199  and  _202
REMARK   81  A    between atoms: _202  and  _203
REMARK   82  A    between atoms: _208  and  _210
REMARK   83  A    between atoms: _210  and  _211
REMARK   84  A    between atoms: _210  and  _213
REMARK   85  A    between atoms: _213  and  _214
REMARK   86  A    between atoms: _217  and  _219
REMARK   87  A    between atoms: _219  and  _220
REMARK   88  A    between atoms: _219  and  _222
REMARK   89  A    between atoms: _222  and  _223
REMARK   90  A    between atoms: _228  and  _230
REMARK   91  A    between atoms: _230  and  _231
REMARK   92  A    between atoms: _230  and  _233
REMARK   93  A    between atoms: _233  and  _234
REMARK   94  A    between atoms: _237  and  _239
REMARK   95  A    between atoms: _239  and  _240
REMARK   96  A    between atoms: _239  and  _242
REMARK   97  A    between atoms: _245  and  _247
REMARK   98  A    between atoms: _247  and  _248
REMARK   99  A    between atoms: _247  and  _250
REMARK  100  A    between atoms: _250  and  _251
REMARK  101  A    between atoms: _257  and  _259
REMARK  102  A    between atoms: _259  and  _260
REMARK  103  A    between atoms: _259  and  _262
REMARK  104  A    between atoms: _265  and  _267
REMARK  105  A    between atoms: _267  and  _268
REMARK  106  A    between atoms: _267  and  _270
REMARK  107  A    between atoms: _273  and  _275
REMARK  108  A    between atoms: _275  and  _276
REMARK  109  A    between atoms: _278  and  _280
REMARK  110  A    between atoms: _280  and  _281
REMARK  111  A    between atoms: _280  and  _283
REMARK  112  A    between atoms: _283  and  _284
REMARK  113  A    between atoms: _287  and  _289
REMARK  114  A    between atoms: _289  and  _290
REMARK  115  A    between atoms: _289  and  _292
REMARK  116  A    between atoms: _292  and  _293
REMARK  117  A    between atoms: _295  and  _297
REMARK  118  A    between atoms: _297  and  _298
REMARK  119  A    between atoms: _297  and  _300
REMARK  120  A    between atoms: _300  and  _301
REMARK  121  A    between atoms: _304  and  _306
REMARK  122  A    between atoms: _306  and  _307
REMARK  123  A    between atoms: _310  and  _312
REMARK  124  A    between atoms: _312  and  _313
REMARK  125  A    between atoms: _312  and  _315
REMARK  126  A    between atoms: _318  and  _320
REMARK  127  A    between atoms: _320  and  _321
REMARK  128  A    between atoms: _320  and  _323
REMARK  129  A    between atoms: _323  and  _324
REMARK  130  A    between atoms: _329  and  _330
REMARK  131  A    between atoms: _332  and  _334
REMARK  132  A    between atoms: _334  and  _335
REMARK  133  A    between atoms: _334  and  _337
REMARK  134  A    between atoms: _337  and  _338
REMARK  135  A    between atoms: _344  and  _346
REMARK  136  A    between atoms: _346  and  _347
REMARK  137  A    between atoms: _346  and  _349
REMARK  138  A    between atoms: _349  and  _350
REMARK  139  A    between atoms: _353  and  _355
REMARK  140  A    between atoms: _355  and  _356
REMARK  141  A    between atoms: _355  and  _358
REMARK  142  A    between atoms: _360  and  _362
REMARK  143  A    between atoms: _362  and  _363
REMARK  144  A    between atoms: _362  and  _365
REMARK  145  A    between atoms: _365  and  _366
REMARK  146  A    between atoms: _371  and  _373
REMARK  147  A    between atoms: _373  and  _374
REMARK  148  A    between atoms: _373  and  _376
REMARK  149  A    between atoms: _376  and  _377
REMARK  150  A    between atoms: _380  and  _382
REMARK  151  A    between atoms: _382  and  _383
REMARK  152  A    between atoms: _382  and  _385
REMARK  153  A    between atoms: _385  and  _386
REMARK  154  A    between atoms: _386  and  _387
REMARK  155  A    between atoms: _390  and  _392
REMARK  156  A    between atoms: _392  and  _393
REMARK  157  A    between atoms: _392  and  _395
REMARK  158  A    between atoms: _395  and  _396
REMARK  159  A    between atoms: _399  and  _401
REMARK  160  A    between atoms: _401  and  _402
REMARK  161  A    between atoms: _401  and  _404
REMARK  162  A    between atoms: _407  and  _409
REMARK  163  A    between atoms: _409  and  _410
REMARK  164  A    between atoms: _412  and  _414
REMARK  165  A    between atoms: _414  and  _415
REMARK  166  A    between atoms: _414  and  _417
REMARK  167  A    between atoms: _420  and  _422
REMARK  168  A    between atoms: _422  and  _423
REMARK  169  A    between atoms: _422  and  _425
REMARK  170  A    between atoms: _425  and  _426
REMARK  171  A    between atoms: _431  and  _433
REMARK  172  A    between atoms: _433  and  _434
REMARK  173  A    between atoms: _433  and  _436
REMARK  174  A    between atoms: _436  and  _437
REMARK  175  A    between atoms: _437  and  _438
REMARK  176  A    between atoms: _443  and  _445
REMARK  177  A    between atoms: _445  and  _446
REMARK  178  A    between atoms: _445  and  _448
REMARK  179  A    between atoms: _448  and  _449
REMARK  180  A    between atoms: _454  and  _455
REMARK  181  A    between atoms: _457  and  _459
REMARK  182  A    between atoms: _459  and  _460
REMARK  183  A    between atoms: _459  and  _462
REMARK  184  A    between atoms: _462  and  _463
REMARK  185  A    between atoms: _465  and  _467
REMARK  186  A    between atoms: _467  and  _468
REMARK  187  A    between atoms: _467  and  _470
REMARK  188  A    between atoms: _470  and  _471
REMARK  189  A    between atoms: _474  and  _476
REMARK  190  A    between atoms: _476  and  _477
REMARK  191  A    between atoms: _476  and  _479
REMARK  192  A    between atoms: _479  and  _480
REMARK  193  A    between atoms: _480  and  _481
REMARK  194  A    between atoms: _484  and  _486
REMARK  195  A    between atoms: _486  and  _487
REMARK  196  A    between atoms: _486  and  _489
REMARK  197  A    between atoms: _489  and  _490
REMARK  198  A    between atoms: _496  and  _498
REMARK  199  A    between atoms: _498  and  _499
REMARK                            x       y       z     vdW  Elec       q    Type
REMARK                         _______ _______ _______ _____ _____    ______ ____
ROOT
ATOM      1  O   HOH     1     -12.060  39.085 -45.540  0.00  0.00    +0.000 OA
ENDROOT
TORSDOF 0
REMARK  Name = ../refined-set-2016/1szd/1szd_pocket.pdb
REMARK  199 active torsions:
REMARK  status: ('A' for Active; 'I' for Inactive)
REMARK    1  A    between atoms: _1  and  _3
REMARK    2  A    between atoms: _3  and  _4
REMARK    3  A    between atoms: _3  and  _6
REMARK    4  A    between atoms: _9  and  _11
REMARK    5  A    between atoms: _11  and  _12
REMARK    6  A    between atoms: _11  and  _14
REMARK    7  A    between atoms: _17  and  _19
REMARK    8  A    between atoms: _19  and  _20
REMARK    9  A    between atoms: _22  and  _24
REMARK   10  A    between atoms: _24  and  _25
REMARK   11  A    between atoms: _28  and  _30
REMARK   12  A    between atoms: _30  and  _31
REMARK   13  A    between atoms: _33  and  _35
REMARK   14  A    between atoms: _35  and  _36
REMARK   15  A    between atoms: _35  and  _38
REMARK   16  A    between atoms: _38  and  _39
REMARK   17  A    between atoms: _42  and  _44
REMARK   18  A    between atoms: _44  and  _45
REMARK   19  A    between atoms: _44  and  _47
REMARK   20  A    between atoms: _47  and  _48
REMARK   21  A    between atoms: _50  and  _52
REMARK   22  A    between atoms: _52  and  _53
REMARK   23  A    between atoms: _52  and  _55
REMARK   24  A    between atoms: _55  and  _56
REMARK   25  A    between atoms: _59  and  _61
REMARK   26  A    between atoms: _61  and  _62
REMARK   27  A    between atoms: _61  and  _64
REMARK   28  A    between atoms: _64  and  _65
REMARK   29  A    between atoms: _67  and  _69
REMARK   30  A    between atoms: _69  and  _70
REMARK   31  A    between atoms: _69  and  _72
REMARK   32  A    between atoms: _74  and  _76
REMARK   33  A    between atoms: _76  and  _77
REMARK   34  A    between atoms: _76  and  _79
REMARK   35  A    between atoms: _79  and  _80
REMARK   36  A    between atoms: _83  and  _85
REMARK   37  A    between atoms: _85  and  _86
REMARK   38  A    between atoms: _85  and  _88
REMARK   39  A    between atoms: _88  and  _89
REMARK   40  A    between atoms: _95  and  _97
REMARK   41  A    between atoms: _97  and  _98
REMARK   42  A    between atoms: _97  and  _100
REMARK   43  A    between atoms: _100  and  _101
REMARK   44  A    between atoms: _101  and  _102
REMARK   45  A    between atoms: _102  and  _103
REMARK   46  A    between atoms: _113  and  _114
REMARK   47  A    between atoms: _119  and  _121
REMARK   48  A    between atoms: _121  and  _122
REMARK   49  A    between atoms: _121  and  _124
REMARK   50  A    between atoms: _124  and  _125
REMARK   51  A    between atoms: _125  and  _126
REMARK   52  A    between atoms: _129  and  _131
REMARK   53  A    between atoms: _131  and  _132
REMARK   54  A    between atoms: _135  and  _137
REMARK   55  A    between atoms: _137  and  _138
REMARK   56  A    between atoms: _137  and  _140
REMARK   57  A    between atoms: _143  and  _145
REMARK   58  A    between atoms: _145  and  _146
REMARK   59  A    between atoms: _145  and  _148
REMARK   60  A    between atoms: _148  and  _149
REMARK   61  A    between atoms: _155  and  _157
REMARK   62  A    between atoms: _157  and  _158
REMARK   63  A    between atoms: _157  and  _160
REMARK   64  A    between atoms: _160  and  _161
REMARK   65  A    between atoms: _164  and  _166
REMARK   66  A    between atoms: _166  and  _167
REMARK   67  A    between atoms: _166  and  _169
REMARK   68  A    between atoms: _169  and  _170
REMARK   69  A    between atoms: _176  and  _178
REMARK   70  A    between atoms: _178  and  _179
REMARK   71  A    between atoms: _178  and  _181
REMARK   72  A    between atoms: _181  and  _182
REMARK   73  A    between atoms: _185  and  _187
REMARK   74  A    between atoms: _187  and  _188
REMARK   75  A    between atoms: _187  and  _190
REMARK   76  A    between atoms: _190  and  _191
REMARK   77  A    between atoms: _191  and  _192
REMARK   78  A    between atoms: _197  and  _199
REMARK   79  A    between atoms: _199  and  _200
REMARK   80  A    between atoms: _199  and  _202
REMARK   81  A    between atoms: _202  and  _203
REMARK   82  A    between atoms: _208  and  _210
REMARK   83  A    between atoms: _210  and  _211
REMARK   84  A    between atoms: _210  and  _213
REMARK   85  A    between atoms: _213  and  _214
REMARK   86  A    between atoms: _217  and  _219
REMARK   87  A    between atoms: _219  and  _220
REMARK   88  A    between atoms: _219  and  _222
REMARK   89  A    between atoms: _222  and  _223
REMARK   90  A    between atoms: _228  and  _230
REMARK   91  A    between atoms: _230  and  _231
REMARK   92  A    between atoms: _230  and  _233
REMARK   93  A    between atoms: _233  and  _234
REMARK   94  A    between atoms: _237  and  _239
REMARK   95  A    between atoms: _239  and  _240
REMARK   96  A    between atoms: _239  and  _242
REMARK   97  A    between atoms: _245  and  _247
REMARK   98  A    between atoms: _247  and  _248
REMARK   99  A    between atoms: _247  and  _250
REMARK  100  A    between atoms: _250  and  _251
REMARK  101  A    between atoms: _257  and  _259
REMARK  102  A    between atoms: _259  and  _260
REMARK  103  A    between atoms: _259  and  _262
REMARK  104  A    between atoms: _265  and  _267
REMARK  105  A    between atoms: _267  and  _268
REMARK  106  A    between atoms: _267  and  _270
REMARK  107  A    between atoms: _273  and  _275
REMARK  108  A    between atoms: _275  and  _276
REMARK  109  A    between atoms: _278  and  _280
REMARK  110  A    between atoms: _280  and  _281
REMARK  111  A    between atoms: _280  and  _283
REMARK  112  A    between atoms: _283  and  _284
REMARK  113  A    between atoms: _287  and  _289
REMARK  114  A    between atoms: _289  and  _290
REMARK  115  A    between atoms: _289  and  _292
REMARK  116  A    between atoms: _292  and  _293
REMARK  117  A    between atoms: _295  and  _297
REMARK  118  A    between atoms: _297  and  _298
REMARK  119  A    between atoms: _297  and  _300
REMARK  120  A    between atoms: _300  and  _301
REMARK  121  A    between atoms: _304  and  _306
REMARK  122  A    between atoms: _306  and  _307
REMARK  123  A    between atoms: _310  and  _312
REMARK  124  A    between atoms: _312  and  _313
REMARK  125  A    between atoms: _312  and  _315
REMARK  126  A    between atoms: _318  and  _320
REMARK  127  A    between atoms: _320  and  _321
REMARK  128  A    between atoms: _320  and  _323
REMARK  129  A    between atoms: _323  and  _324
REMARK  130  A    between atoms: _329  and  _330
REMARK  131  A    between atoms: _332  and  _334
REMARK  132  A    between atoms: _334  and  _335
REMARK  133  A    between atoms: _334  and  _337
REMARK  134  A    between atoms: _337  and  _338
REMARK  135  A    between atoms: _344  and  _346
REMARK  136  A    between atoms: _346  and  _347
REMARK  137  A    between atoms: _346  and  _349
REMARK  138  A    between atoms: _349  and  _350
REMARK  139  A    between atoms: _353  and  _355
REMARK  140  A    between atoms: _355  and  _356
REMARK  141  A    between atoms: _355  and  _358
REMARK  142  A    between atoms: _360  and  _362
REMARK  143  A    between atoms: _362  and  _363
REMARK  144  A    between atoms: _362  and  _365
REMARK  145  A    between atoms: _365  and  _366
REMARK  146  A    between atoms: _371  and  _373
REMARK  147  A    between atoms: _373  and  _374
REMARK  148  A    between atoms: _373  and  _376
REMARK  149  A    between atoms: _376  and  _377
REMARK  150  A    between atoms: _380  and  _382
REMARK  151  A    between atoms: _382  and  _383
REMARK  152  A    between atoms: _382  and  _385
REMARK  153  A    between atoms: _385  and  _386
REMARK  154  A    between atoms: _386  and  _387
REMARK  155  A    between atoms: _390  and  _392
REMARK  156  A    between atoms: _392  and  _393
REMARK  157  A    between atoms: _392  and  _395
REMARK  158  A    between atoms: _395  and  _396
REMARK  159  A    between atoms: _399  and  _401
REMARK  160  A    between atoms: _401  and  _402
REMARK  161  A    between atoms: _401  and  _404
REMARK  162  A    between atoms: _407  and  _409
REMARK  163  A    between atoms: _409  and  _410
REMARK  164  A    between atoms: _412  and  _414
REMARK  165  A    between atoms: _414  and  _415
REMARK  166  A    between atoms: _414  and  _417
REMARK  167  A    between atoms: _420  and  _422
REMARK  168  A    between atoms: _422  and  _423
REMARK  169  A    between atoms: _422  and  _425
REMARK  170  A    between atoms: _425  and  _426
REMARK  171  A    between atoms: _431  and  _433
REMARK  172  A    between atoms: _433  and  _434
REMARK  173  A    between atoms: _433  and  _436
REMARK  174  A    between atoms: _436  and  _437
REMARK  175  A    between atoms: _437  and  _438
REMARK  176  A    between atoms: _443  and  _445
REMARK  177  A    between atoms: _445  and  _446
REMARK  178  A    between atoms: _445  and  _448
REMARK  179  A    between atoms: _448  and  _449
REMARK  180  A    between atoms: _454  and  _455
REMARK  181  A    between atoms: _457  and  _459
REMARK  182  A    between atoms: _459  and  _460
REMARK  183  A    between atoms: _459  and  _462
REMARK  184  A    between atoms: _462  and  _463
REMARK  185  A    between atoms: _465  and  _467
REMARK  186  A    between atoms: _467  and  _468
REMARK  187  A    between atoms: _467  and  _470
REMARK  188  A    between atoms: _470  and  _471
REMARK  189  A    between atoms: _474  and  _476
REMARK  190  A    between atoms: _476  and  _477
REMARK  191  A    between atoms: _476  and  _479
REMARK  192  A    between atoms: _479  and  _480
REMARK  193  A    between atoms: _480  and  _481
REMARK  194  A    between atoms: _484  and  _486
REMARK  195  A    between atoms: _486  and  _487
REMARK  196  A    between atoms: _486  and  _489
REMARK  197  A    between atoms: _489  and  _490
REMARK  198  A    between atoms: _496  and  _498
REMARK  199  A    between atoms: _498  and  _499
REMARK                            x       y       z     vdW  Elec       q    Type
REMARK                         _______ _______ _______ _____ _____    ______ ____
ROOT
ATOM      1  O   HOH     1     -14.493  27.597 -40.997  0.00  0.00    +0.000 OA
ENDROOT
TORSDOF 0
REMARK  Name = ../refined-set-2016/1szd/1szd_pocket.pdb
REMARK  199 active torsions:
REMARK  status: ('A' for Active; 'I' for Inactive)
REMARK    1  A    between atoms: _1  and  _3
REMARK    2  A    between atoms: _3  and  _4
REMARK    3  A    between atoms: _3  and  _6
REMARK    4  A    between atoms: _9  and  _11
REMARK    5  A    between atoms: _11  and  _12
REMARK    6  A    between atoms: _11  and  _14
REMARK    7  A    between atoms: _17  and  _19
REMARK    8  A    between atoms: _19  and  _20
REMARK    9  A    between atoms: _22  and  _24
REMARK   10  A    between atoms: _24  and  _25
REMARK   11  A    between atoms: _28  and  _30
REMARK   12  A    between atoms: _30  and  _31
REMARK   13  A    between atoms: _33  and  _35
REMARK   14  A    between atoms: _35  and  _36
REMARK   15  A    between atoms: _35  and  _38
REMARK   16  A    between atoms: _38  and  _39
REMARK   17  A    between atoms: _42  and  _44
REMARK   18  A    between atoms: _44  and  _45
REMARK   19  A    between atoms: _44  and  _47
REMARK   20  A    between atoms: _47  and  _48
REMARK   21  A    between atoms: _50  and  _52
REMARK   22  A    between atoms: _52  and  _53
REMARK   23  A    between atoms: _52  and  _55
REMARK   24  A    between atoms: _55  and  _56
REMARK   25  A    between atoms: _59  and  _61
REMARK   26  A    between atoms: _61  and  _62
REMARK   27  A    between atoms: _61  and  _64
REMARK   28  A    between atoms: _64  and  _65
REMARK   29  A    between atoms: _67  and  _69
REMARK   30  A    between atoms: _69  and  _70
REMARK   31  A    between atoms: _69  and  _72
REMARK   32  A    between atoms: _74  and  _76
REMARK   33  A    between atoms: _76  and  _77
REMARK   34  A    between atoms: _76  and  _79
REMARK   35  A    between atoms: _79  and  _80
REMARK   36  A    between atoms: _83  and  _85
REMARK   37  A    between atoms: _85  and  _86
REMARK   38  A    between atoms: _85  and  _88
REMARK   39  A    between atoms: _88  and  _89
REMARK   40  A    between atoms: _95  and  _97
REMARK   41  A    between atoms: _97  and  _98
REMARK   42  A    between atoms: _97  and  _100
REMARK   43  A    between atoms: _100  and  _101
REMARK   44  A    between atoms: _101  and  _102
REMARK   45  A    between atoms: _102  and  _103
REMARK   46  A    between atoms: _113  and  _114
REMARK   47  A    between atoms: _119  and  _121
REMARK   48  A    between atoms: _121  and  _122
REMARK   49  A    between atoms: _121  and  _124
REMARK   50  A    between atoms: _124  and  _125
REMARK   51  A    between atoms: _125  and  _126
REMARK   52  A    between atoms: _129  and  _131
REMARK   53  A    between atoms: _131  and  _132
REMARK   54  A    between atoms: _135  and  _137
REMARK   55  A    between atoms: _137  and  _138
REMARK   56  A    between atoms: _137  and  _140
REMARK   57  A    between atoms: _143  and  _145
REMARK   58  A    between atoms: _145  and  _146
REMARK   59  A    between atoms: _145  and  _148
REMARK   60  A    between atoms: _148  and  _149
REMARK   61  A    between atoms: _155  and  _157
REMARK   62  A    between atoms: _157  and  _158
REMARK   63  A    between atoms: _157  and  _160
REMARK   64  A    between atoms: _160  and  _161
REMARK   65  A    between atoms: _164  and  _166
REMARK   66  A    between atoms: _166  and  _167
REMARK   67  A    between atoms: _166  and  _169
REMARK   68  A    between atoms: _169  and  _170
REMARK   69  A    between atoms: _176  and  _178
REMARK   70  A    between atoms: _178  and  _179
REMARK   71  A    between atoms: _178  and  _181
REMARK   72  A    between atoms: _181  and  _182
REMARK   73  A    between atoms: _185  and  _187
REMARK   74  A    between atoms: _187  and  _188
REMARK   75  A    between atoms: _187  and  _190
REMARK   76  A    between atoms: _190  and  _191
REMARK   77  A    between atoms: _191  and  _192
REMARK   78  A    between atoms: _197  and  _199
REMARK   79  A    between atoms: _199  and  _200
REMARK   80  A    between atoms: _199  and  _202
REMARK   81  A    between atoms: _202  and  _203
REMARK   82  A    between atoms: _208  and  _210
REMARK   83  A    between atoms: _210  and  _211
REMARK   84  A    between atoms: _210  and  _213
REMARK   85  A    between atoms: _213  and  _214
REMARK   86  A    between atoms: _217  and  _219
REMARK   87  A    between atoms: _219  and  _220
REMARK   88  A    between atoms: _219  and  _222
REMARK   89  A    between atoms: _222  and  _223
REMARK   90  A    between atoms: _228  and  _230
REMARK   91  A    between atoms: _230  and  _231
REMARK   92  A    between atoms: _230  and  _233
REMARK   93  A    between atoms: _233  and  _234
REMARK   94  A    between atoms: _237  and  _239
REMARK   95  A    between atoms: _239  and  _240
REMARK   96  A    between atoms: _239  and  _242
REMARK   97  A    between atoms: _245  and  _247
REMARK   98  A    between atoms: _247  and  _248
REMARK   99  A    between atoms: _247  and  _250
REMARK  100  A    between atoms: _250  and  _251
REMARK  101  A    between atoms: _257  and  _259
REMARK  102  A    between atoms: _259  and  _260
REMARK  103  A    between atoms: _259  and  _262
REMARK  104  A    between atoms: _265  and  _267
REMARK  105  A    between atoms: _267  and  _268
REMARK  106  A    between atoms: _267  and  _270
REMARK  107  A    between atoms: _273  and  _275
REMARK  108  A    between atoms: _275  and  _276
REMARK  109  A    between atoms: _278  and  _280
REMARK  110  A    between atoms: _280  and  _281
REMARK  111  A    between atoms: _280  and  _283
REMARK  112  A    between atoms: _283  and  _284
REMARK  113  A    between atoms: _287  and  _289
REMARK  114  A    between atoms: _289  and  _290
REMARK  115  A    between atoms: _289  and  _292
REMARK  116  A    between atoms: _292  and  _293
REMARK  117  A    between atoms: _295  and  _297
REMARK  118  A    between atoms: _297  and  _298
REMARK  119  A    between atoms: _297  and  _300
REMARK  120  A    between atoms: _300  and  _301
REMARK  121  A    between atoms: _304  and  _306
REMARK  122  A    between atoms: _306  and  _307
REMARK  123  A    between atoms: _310  and  _312
REMARK  124  A    between atoms: _312  and  _313
REMARK  125  A    between atoms: _312  and  _315
REMARK  126  A    between atoms: _318  and  _320
REMARK  127  A    between atoms: _320  and  _321
REMARK  128  A    between atoms: _320  and  _323
REMARK  129  A    between atoms: _323  and  _324
REMARK  130  A    between atoms: _329  and  _330
REMARK  131  A    between atoms: _332  and  _334
REMARK  132  A    between atoms: _334  and  _335
REMARK  133  A    between atoms: _334  and  _337
REMARK  134  A    between atoms: _337  and  _338
REMARK  135  A    between atoms: _344  and  _346
REMARK  136  A    between atoms: _346  and  _347
REMARK  137  A    between atoms: _346  and  _349
REMARK  138  A    between atoms: _349  and  _350
REMARK  139  A    between atoms: _353  and  _355
REMARK  140  A    between atoms: _355  and  _356
REMARK  141  A    between atoms: _355  and  _358
REMARK  142  A    between atoms: _360  and  _362
REMARK  143  A    between atoms: _362  and  _363
REMARK  144  A    between atoms: _362  and  _365
REMARK  145  A    between atoms: _365  and  _366
REMARK  146  A    between atoms: _371  and  _373
REMARK  147  A    between atoms: _373  and  _374
REMARK  148  A    between atoms: _373  and  _376
REMARK  149  A    between atoms: _376  and  _377
REMARK  150  A    between atoms: _380  and  _382
REMARK  151  A    between atoms: _382  and  _383
REMARK  152  A    between atoms: _382  and  _385
REMARK  153  A    between atoms: _385  and  _386
REMARK  154  A    between atoms: _386  and  _387
REMARK  155  A    between atoms: _390  and  _392
REMARK  156  A    between atoms: _392  and  _393
REMARK  157  A    between atoms: _392  and  _395
REMARK  158  A    between atoms: _395  and  _396
REMARK  159  A    between atoms: _399  and  _401
REMARK  160  A    between atoms: _401  and  _402
REMARK  161  A    between atoms: _401  and  _404
REMARK  162  A    between atoms: _407  and  _409
REMARK  163  A    between atoms: _409  and  _410
REMARK  164  A    between atoms: _412  and  _414
REMARK  165  A    between atoms: _414  and  _415
REMARK  166  A    between atoms: _414  and  _417
REMARK  167  A    between atoms: _420  and  _422
REMARK  168  A    between atoms: _422  and  _423
REMARK  169  A    between atoms: _422  and  _425
REMARK  170  A    between atoms: _425  and  _426
REMARK  171  A    between atoms: _431  and  _433
REMARK  172  A    between atoms: _433  and  _434
REMARK  173  A    between atoms: _433  and  _436
REMARK  174  A    between atoms: _436  and  _437
REMARK  175  A    between atoms: _437  and  _438
REMARK  176  A    between atoms: _443  and  _445
REMARK  177  A    between atoms: _445  and  _446
REMARK  178  A    between atoms: _445  and  _448
REMARK  179  A    between atoms: _448  and  _449
REMARK  180  A    between atoms: _454  and  _455
REMARK  181  A    between atoms: _457  and  _459
REMARK  182  A    between atoms: _459  and  _460
REMARK  183  A    between atoms: _459  and  _462
REMARK  184  A    between atoms: _462  and  _463
REMARK  185  A    between atoms: _465  and  _467
REMARK  186  A    between atoms: _467  and  _468
REMARK  187  A    between atoms: _467  and  _470
REMARK  188  A    between atoms: _470  and  _471
REMARK  189  A    between atoms: _474  and  _476
REMARK  190  A    between atoms: _476  and  _477
REMARK  191  A    between atoms: _476  and  _479
REMARK  192  A    between atoms: _479  and  _480
REMARK  193  A    between atoms: _480  and  _481
REMARK  194  A    between atoms: _484  and  _486
REMARK  195  A    between atoms: _486  and  _487
REMARK  196  A    between atoms: _486  and  _489
REMARK  197  A    between atoms: _489  and  _490
REMARK  198  A    between atoms: _496  and  _498
REMARK  199  A    between atoms: _498  and  _499
REMARK                            x       y       z     vdW  Elec       q    Type
REMARK                         _______ _______ _______ _____ _____    ______ ____
ROOT
ATOM      1  O   HOH     1      -9.327  25.283 -44.073  0.00  0.00    +0.000 OA
ENDROOT
TORSDOF 0
REMARK  Name = ../refined-set-2016/1szd/1szd_pocket.pdb
REMARK  199 active torsions:
REMARK  status: ('A' for Active; 'I' for Inactive)
REMARK    1  A    between atoms: _1  and  _3
REMARK    2  A    between atoms: _3  and  _4
REMARK    3  A    between atoms: _3  and  _6
REMARK    4  A    between atoms: _9  and  _11
REMARK    5  A    between atoms: _11  and  _12
REMARK    6  A    between atoms: _11  and  _14
REMARK    7  A    between atoms: _17  and  _19
REMARK    8  A    between atoms: _19  and  _20
REMARK    9  A    between atoms: _22  and  _24
REMARK   10  A    between atoms: _24  and  _25
REMARK   11  A    between atoms: _28  and  _30
REMARK   12  A    between atoms: _30  and  _31
REMARK   13  A    between atoms: _33  and  _35
REMARK   14  A    between atoms: _35  and  _36
REMARK   15  A    between atoms: _35  and  _38
REMARK   16  A    between atoms: _38  and  _39
REMARK   17  A    between atoms: _42  and  _44
REMARK   18  A    between atoms: _44  and  _45
REMARK   19  A    between atoms: _44  and  _47
REMARK   20  A    between atoms: _47  and  _48
REMARK   21  A    between atoms: _50  and  _52
REMARK   22  A    between atoms: _52  and  _53
REMARK   23  A    between atoms: _52  and  _55
REMARK   24  A    between atoms: _55  and  _56
REMARK   25  A    between atoms: _59  and  _61
REMARK   26  A    between atoms: _61  and  _62
REMARK   27  A    between atoms: _61  and  _64
REMARK   28  A    between atoms: _64  and  _65
REMARK   29  A    between atoms: _67  and  _69
REMARK   30  A    between atoms: _69  and  _70
REMARK   31  A    between atoms: _69  and  _72
REMARK   32  A    between atoms: _74  and  _76
REMARK   33  A    between atoms: _76  and  _77
REMARK   34  A    between atoms: _76  and  _79
REMARK   35  A    between atoms: _79  and  _80
REMARK   36  A    between atoms: _83  and  _85
REMARK   37  A    between atoms: _85  and  _86
REMARK   38  A    between atoms: _85  and  _88
REMARK   39  A    between atoms: _88  and  _89
REMARK   40  A    between atoms: _95  and  _97
REMARK   41  A    between atoms: _97  and  _98
REMARK   42  A    between atoms: _97  and  _100
REMARK   43  A    between atoms: _100  and  _101
REMARK   44  A    between atoms: _101  and  _102
REMARK   45  A    between atoms: _102  and  _103
REMARK   46  A    between atoms: _113  and  _114
REMARK   47  A    between atoms: _119  and  _121
REMARK   48  A    between atoms: _121  and  _122
REMARK   49  A    between atoms: _121  and  _124
REMARK   50  A    between atoms: _124  and  _125
REMARK   51  A    between atoms: _125  and  _126
REMARK   52  A    between atoms: _129  and  _131
REMARK   53  A    between atoms: _131  and  _132
REMARK   54  A    between atoms: _135  and  _137
REMARK   55  A    between atoms: _137  and  _138
REMARK   56  A    between atoms: _137  and  _140
REMARK   57  A    between atoms: _143  and  _145
REMARK   58  A    between atoms: _145  and  _146
REMARK   59  A    between atoms: _145  and  _148
REMARK   60  A    between atoms: _148  and  _149
REMARK   61  A    between atoms: _155  and  _157
REMARK   62  A    between atoms: _157  and  _158
REMARK   63  A    between atoms: _157  and  _160
REMARK   64  A    between atoms: _160  and  _161
REMARK   65  A    between atoms: _164  and  _166
REMARK   66  A    between atoms: _166  and  _167
REMARK   67  A    between atoms: _166  and  _169
REMARK   68  A    between atoms: _169  and  _170
REMARK   69  A    between atoms: _176  and  _178
REMARK   70  A    between atoms: _178  and  _179
REMARK   71  A    between atoms: _178  and  _181
REMARK   72  A    between atoms: _181  and  _182
REMARK   73  A    between atoms: _185  and  _187
REMARK   74  A    between atoms: _187  and  _188
REMARK   75  A    between atoms: _187  and  _190
REMARK   76  A    between atoms: _190  and  _191
REMARK   77  A    between atoms: _191  and  _192
REMARK   78  A    between atoms: _197  and  _199
REMARK   79  A    between atoms: _199  and  _200
REMARK   80  A    between atoms: _199  and  _202
REMARK   81  A    between atoms: _202  and  _203
REMARK   82  A    between atoms: _208  and  _210
REMARK   83  A    between atoms: _210  and  _211
REMARK   84  A    between atoms: _210  and  _213
REMARK   85  A    between atoms: _213  and  _214
REMARK   86  A    between atoms: _217  and  _219
REMARK   87  A    between atoms: _219  and  _220
REMARK   88  A    between atoms: _219  and  _222
REMARK   89  A    between atoms: _222  and  _223
REMARK   90  A    between atoms: _228  and  _230
REMARK   91  A    between atoms: _230  and  _231
REMARK   92  A    between atoms: _230  and  _233
REMARK   93  A    between atoms: _233  and  _234
REMARK   94  A    between atoms: _237  and  _239
REMARK   95  A    between atoms: _239  and  _240
REMARK   96  A    between atoms: _239  and  _242
REMARK   97  A    between atoms: _245  and  _247
REMARK   98  A    between atoms: _247  and  _248
REMARK   99  A    between atoms: _247  and  _250
REMARK  100  A    between atoms: _250  and  _251
REMARK  101  A    between atoms: _257  and  _259
REMARK  102  A    between atoms: _259  and  _260
REMARK  103  A    between atoms: _259  and  _262
REMARK  104  A    between atoms: _265  and  _267
REMARK  105  A    between atoms: _267  and  _268
REMARK  106  A    between atoms: _267  and  _270
REMARK  107  A    between atoms: _273  and  _275
REMARK  108  A    between atoms: _275  and  _276
REMARK  109  A    between atoms: _278  and  _280
REMARK  110  A    between atoms: _280  and  _281
REMARK  111  A    between atoms: _280  and  _283
REMARK  112  A    between atoms: _283  and  _284
REMARK  113  A    between atoms: _287  and  _289
REMARK  114  A    between atoms: _289  and  _290
REMARK  115  A    between atoms: _289  and  _292
REMARK  116  A    between atoms: _292  and  _293
REMARK  117  A    between atoms: _295  and  _297
REMARK  118  A    between atoms: _297  and  _298
REMARK  119  A    between atoms: _297  and  _300
REMARK  120  A    between atoms: _300  and  _301
REMARK  121  A    between atoms: _304  and  _306
REMARK  122  A    between atoms: _306  and  _307
REMARK  123  A    between atoms: _310  and  _312
REMARK  124  A    between atoms: _312  and  _313
REMARK  125  A    between atoms: _312  and  _315
REMARK  126  A    between atoms: _318  and  _320
REMARK  127  A    between atoms: _320  and  _321
REMARK  128  A    between atoms: _320  and  _323
REMARK  129  A    between atoms: _323  and  _324
REMARK  130  A    between atoms: _329  and  _330
REMARK  131  A    between atoms: _332  and  _334
REMARK  132  A    between atoms: _334  and  _335
REMARK  133  A    between atoms: _334  and  _337
REMARK  134  A    between atoms: _337  and  _338
REMARK  135  A    between atoms: _344  and  _346
REMARK  136  A    between atoms: _346  and  _347
REMARK  137  A    between atoms: _346  and  _349
REMARK  138  A    between atoms: _349  and  _350
REMARK  139  A    between atoms: _353  and  _355
REMARK  140  A    between atoms: _355  and  _356
REMARK  141  A    between atoms: _355  and  _358
REMARK  142  A    between atoms: _360  and  _362
REMARK  143  A    between atoms: _362  and  _363
REMARK  144  A    between atoms: _362  and  _365
REMARK  145  A    between atoms: _365  and  _366
REMARK  146  A    between atoms: _371  and  _373
REMARK  147  A    between atoms: _373  and  _374
REMARK  148  A    between atoms: _373  and  _376
REMARK  149  A    between atoms: _376  and  _377
REMARK  150  A    between atoms: _380  and  _382
REMARK  151  A    between atoms: _382  and  _383
REMARK  152  A    between atoms: _382  and  _385
REMARK  153  A    between atoms: _385  and  _386
REMARK  154  A    between atoms: _386  and  _387
REMARK  155  A    between atoms: _390  and  _392
REMARK  156  A    between atoms: _392  and  _393
REMARK  157  A    between atoms: _392  and  _395
REMARK  158  A    between atoms: _395  and  _396
REMARK  159  A    between atoms: _399  and  _401
REMARK  160  A    between atoms: _401  and  _402
REMARK  161  A    between atoms: _401  and  _404
REMARK  162  A    between atoms: _407  and  _409
REMARK  163  A    between atoms: _409  and  _410
REMARK  164  A    between atoms: _412  and  _414
REMARK  165  A    between atoms: _414  and  _415
REMARK  166  A    between atoms: _414  and  _417
REMARK  167  A    between atoms: _420  and  _422
REMARK  168  A    between atoms: _422  and  _423
REMARK  169  A    between atoms: _422  and  _425
REMARK  170  A    between atoms: _425  and  _426
REMARK  171  A    between atoms: _431  and  _433
REMARK  172  A    between atoms: _433  and  _434
REMARK  173  A    between atoms: _433  and  _436
REMARK  174  A    between atoms: _436  and  _437
REMARK  175  A    between atoms: _437  and  _438
REMARK  176  A    between atoms: _443  and  _445
REMARK  177  A    between atoms: _445  and  _446
REMARK  178  A    between atoms: _445  and  _448
REMARK  179  A    between atoms: _448  and  _449
REMARK  180  A    between atoms: _454  and  _455
REMARK  181  A    between atoms: _457  and  _459
REMARK  182  A    between atoms: _459  and  _460
REMARK  183  A    between atoms: _459  and  _462
REMARK  184  A    between atoms: _462  and  _463
REMARK  185  A    between atoms: _465  and  _467
REMARK  186  A    between atoms: _467  and  _468
REMARK  187  A    between atoms: _467  and  _470
REMARK  188  A    between atoms: _470  and  _471
REMARK  189  A    between atoms: _474  and  _476
REMARK  190  A    between atoms: _476  and  _477
REMARK  191  A    between atoms: _476  and  _479
REMARK  192  A    between atoms: _479  and  _480
REMARK  193  A    between atoms: _480  and  _481
REMARK  194  A    between atoms: _484  and  _486
REMARK  195  A    between atoms: _486  and  _487
REMARK  196  A    between atoms: _486  and  _489
REMARK  197  A    between atoms: _489  and  _490
REMARK  198  A    between atoms: _496  and  _498
REMARK  199  A    between atoms: _498  and  _499
REMARK                            x       y       z     vdW  Elec       q    Type
REMARK                         _______ _______ _______ _____ _____    ______ ____
ROOT
ATOM      1  O   HOH     1     -14.141  31.863 -42.368  0.00  0.00    +0.000 OA
ENDROOT
TORSDOF 0
REMARK  Name = ../refined-set-2016/1szd/1szd_pocket.pdb
REMARK  199 active torsions:
REMARK  status: ('A' for Active; 'I' for Inactive)
REMARK    1  A    between atoms: _1  and  _3
REMARK    2  A    between atoms: _3  and  _4
REMARK    3  A    between atoms: _3  and  _6
REMARK    4  A    between atoms: _9  and  _11
REMARK    5  A    between atoms: _11  and  _12
REMARK    6  A    between atoms: _11  and  _14
REMARK    7  A    between atoms: _17  and  _19
REMARK    8  A    between atoms: _19  and  _20
REMARK    9  A    between atoms: _22  and  _24
REMARK   10  A    between atoms: _24  and  _25
REMARK   11  A    between atoms: _28  and  _30
REMARK   12  A    between atoms: _30  and  _31
REMARK   13  A    between atoms: _33  and  _35
REMARK   14  A    between atoms: _35  and  _36
REMARK   15  A    between atoms: _35  and  _38
REMARK   16  A    between atoms: _38  and  _39
REMARK   17  A    between atoms: _42  and  _44
REMARK   18  A    between atoms: _44  and  _45
REMARK   19  A    between atoms: _44  and  _47
REMARK   20  A    between atoms: _47  and  _48
REMARK   21  A    between atoms: _50  and  _52
REMARK   22  A    between atoms: _52  and  _53
REMARK   23  A    between atoms: _52  and  _55
REMARK   24  A    between atoms: _55  and  _56
REMARK   25  A    between atoms: _59  and  _61
REMARK   26  A    between atoms: _61  and  _62
REMARK   27  A    between atoms: _61  and  _64
REMARK   28  A    between atoms: _64  and  _65
REMARK   29  A    between atoms: _67  and  _69
REMARK   30  A    between atoms: _69  and  _70
REMARK   31  A    between atoms: _69  and  _72
REMARK   32  A    between atoms: _74  and  _76
REMARK   33  A    between atoms: _76  and  _77
REMARK   34  A    between atoms: _76  and  _79
REMARK   35  A    between atoms: _79  and  _80
REMARK   36  A    between atoms: _83  and  _85
REMARK   37  A    between atoms: _85  and  _86
REMARK   38  A    between atoms: _85  and  _88
REMARK   39  A    between atoms: _88  and  _89
REMARK   40  A    between atoms: _95  and  _97
REMARK   41  A    between atoms: _97  and  _98
REMARK   42  A    between atoms: _97  and  _100
REMARK   43  A    between atoms: _100  and  _101
REMARK   44  A    between atoms: _101  and  _102
REMARK   45  A    between atoms: _102  and  _103
REMARK   46  A    between atoms: _113  and  _114
REMARK   47  A    between atoms: _119  and  _121
REMARK   48  A    between atoms: _121  and  _122
REMARK   49  A    between atoms: _121  and  _124
REMARK   50  A    between atoms: _124  and  _125
REMARK   51  A    between atoms: _125  and  _126
REMARK   52  A    between atoms: _129  and  _131
REMARK   53  A    between atoms: _131  and  _132
REMARK   54  A    between atoms: _135  and  _137
REMARK   55  A    between atoms: _137  and  _138
REMARK   56  A    between atoms: _137  and  _140
REMARK   57  A    between atoms: _143  and  _145
REMARK   58  A    between atoms: _145  and  _146
REMARK   59  A    between atoms: _145  and  _148
REMARK   60  A    between atoms: _148  and  _149
REMARK   61  A    between atoms: _155  and  _157
REMARK   62  A    between atoms: _157  and  _158
REMARK   63  A    between atoms: _157  and  _160
REMARK   64  A    between atoms: _160  and  _161
REMARK   65  A    between atoms: _164  and  _166
REMARK   66  A    between atoms: _166  and  _167
REMARK   67  A    between atoms: _166  and  _169
REMARK   68  A    between atoms: _169  and  _170
REMARK   69  A    between atoms: _176  and  _178
REMARK   70  A    between atoms: _178  and  _179
REMARK   71  A    between atoms: _178  and  _181
REMARK   72  A    between atoms: _181  and  _182
REMARK   73  A    between atoms: _185  and  _187
REMARK   74  A    between atoms: _187  and  _188
REMARK   75  A    between atoms: _187  and  _190
REMARK   76  A    between atoms: _190  and  _191
REMARK   77  A    between atoms: _191  and  _192
REMARK   78  A    between atoms: _197  and  _199
REMARK   79  A    between atoms: _199  and  _200
REMARK   80  A    between atoms: _199  and  _202
REMARK   81  A    between atoms: _202  and  _203
REMARK   82  A    between atoms: _208  and  _210
REMARK   83  A    between atoms: _210  and  _211
REMARK   84  A    between atoms: _210  and  _213
REMARK   85  A    between atoms: _213  and  _214
REMARK   86  A    between atoms: _217  and  _219
REMARK   87  A    between atoms: _219  and  _220
REMARK   88  A    between atoms: _219  and  _222
REMARK   89  A    between atoms: _222  and  _223
REMARK   90  A    between atoms: _228  and  _230
REMARK   91  A    between atoms: _230  and  _231
REMARK   92  A    between atoms: _230  and  _233
REMARK   93  A    between atoms: _233  and  _234
REMARK   94  A    between atoms: _237  and  _239
REMARK   95  A    between atoms: _239  and  _240
REMARK   96  A    between atoms: _239  and  _242
REMARK   97  A    between atoms: _245  and  _247
REMARK   98  A    between atoms: _247  and  _248
REMARK   99  A    between atoms: _247  and  _250
REMARK  100  A    between atoms: _250  and  _251
REMARK  101  A    between atoms: _257  and  _259
REMARK  102  A    between atoms: _259  and  _260
REMARK  103  A    between atoms: _259  and  _262
REMARK  104  A    between atoms: _265  and  _267
REMARK  105  A    between atoms: _267  and  _268
REMARK  106  A    between atoms: _267  and  _270
REMARK  107  A    between atoms: _273  and  _275
REMARK  108  A    between atoms: _275  and  _276
REMARK  109  A    between atoms: _278  and  _280
REMARK  110  A    between atoms: _280  and  _281
REMARK  111  A    between atoms: _280  and  _283
REMARK  112  A    between atoms: _283  and  _284
REMARK  113  A    between atoms: _287  and  _289
REMARK  114  A    between atoms: _289  and  _290
REMARK  115  A    between atoms: _289  and  _292
REMARK  116  A    between atoms: _292  and  _293
REMARK  117  A    between atoms: _295  and  _297
REMARK  118  A    between atoms: _297  and  _298
REMARK  119  A    between atoms: _297  and  _300
REMARK  120  A    between atoms: _300  and  _301
REMARK  121  A    between atoms: _304  and  _306
REMARK  122  A    between atoms: _306  and  _307
REMARK  123  A    between atoms: _310  and  _312
REMARK  124  A    between atoms: _312  and  _313
REMARK  125  A    between atoms: _312  and  _315
REMARK  126  A    between atoms: _318  and  _320
REMARK  127  A    between atoms: _320  and  _321
REMARK  128  A    between atoms: _320  and  _323
REMARK  129  A    between atoms: _323  and  _324
REMARK  130  A    between atoms: _329  and  _330
REMARK  131  A    between atoms: _332  and  _334
REMARK  132  A    between atoms: _334  and  _335
REMARK  133  A    between atoms: _334  and  _337
REMARK  134  A    between atoms: _337  and  _338
REMARK  135  A    between atoms: _344  and  _346
REMARK  136  A    between atoms: _346  and  _347
REMARK  137  A    between atoms: _346  and  _349
REMARK  138  A    between atoms: _349  and  _350
REMARK  139  A    between atoms: _353  and  _355
REMARK  140  A    between atoms: _355  and  _356
REMARK  141  A    between atoms: _355  and  _358
REMARK  142  A    between atoms: _360  and  _362
REMARK  143  A    between atoms: _362  and  _363
REMARK  144  A    between atoms: _362  and  _365
REMARK  145  A    between atoms: _365  and  _366
REMARK  146  A    between atoms: _371  and  _373
REMARK  147  A    between atoms: _373  and  _374
REMARK  148  A    between atoms: _373  and  _376
REMARK  149  A    between atoms: _376  and  _377
REMARK  150  A    between atoms: _380  and  _382
REMARK  151  A    between atoms: _382  and  _383
REMARK  152  A    between atoms: _382  and  _385
REMARK  153  A    between atoms: _385  and  _386
REMARK  154  A    between atoms: _386  and  _387
REMARK  155  A    between atoms: _390  and  _392
REMARK  156  A    between atoms: _392  and  _393
REMARK  157  A    between atoms: _392  and  _395
REMARK  158  A    between atoms: _395  and  _396
REMARK  159  A    between atoms: _399  and  _401
REMARK  160  A    between atoms: _401  and  _402
REMARK  161  A    between atoms: _401  and  _404
REMARK  162  A    between atoms: _407  and  _409
REMARK  163  A    between atoms: _409  and  _410
REMARK  164  A    between atoms: _412  and  _414
REMARK  165  A    between atoms: _414  and  _415
REMARK  166  A    between atoms: _414  and  _417
REMARK  167  A    between atoms: _420  and  _422
REMARK  168  A    between atoms: _422  and  _423
REMARK  169  A    between atoms: _422  and  _425
REMARK  170  A    between atoms: _425  and  _426
REMARK  171  A    between atoms: _431  and  _433
REMARK  172  A    between atoms: _433  and  _434
REMARK  173  A    between atoms: _433  and  _436
REMARK  174  A    between atoms: _436  and  _437
REMARK  175  A    between atoms: _437  and  _438
REMARK  176  A    between atoms: _443  and  _445
REMARK  177  A    between atoms: _445  and  _446
REMARK  178  A    between atoms: _445  and  _448
REMARK  179  A    between atoms: _448  and  _449
REMARK  180  A    between atoms: _454  and  _455
REMARK  181  A    between atoms: _457  and  _459
REMARK  182  A    between atoms: _459  and  _460
REMARK  183  A    between atoms: _459  and  _462
REMARK  184  A    between atoms: _462  and  _463
REMARK  185  A    between atoms: _465  and  _467
REMARK  186  A    between atoms: _467  and  _468
REMARK  187  A    between atoms: _467  and  _470
REMARK  188  A    between atoms: _470  and  _471
REMARK  189  A    between atoms: _474  and  _476
REMARK  190  A    between atoms: _476  and  _477
REMARK  191  A    between atoms: _476  and  _479
REMARK  192  A    between atoms: _479  and  _480
REMARK  193  A    between atoms: _480  and  _481
REMARK  194  A    between atoms: _484  and  _486
REMARK  195  A    between atoms: _486  and  _487
REMARK  196  A    between atoms: _486  and  _489
REMARK  197  A    between atoms: _489  and  _490
REMARK  198  A    between atoms: _496  and  _498
REMARK  199  A    between atoms: _498  and  _499
REMARK                            x       y       z     vdW  Elec       q    Type
REMARK                         _______ _______ _______ _____ _____    ______ ____
ROOT
ATOM      1  O   HOH     1     -10.044  31.496 -52.240  0.00  0.00    +0.000 OA
ENDROOT
TORSDOF 0
REMARK  Name = ../refined-set-2016/1szd/1szd_pocket.pdb
REMARK  199 active torsions:
REMARK  status: ('A' for Active; 'I' for Inactive)
REMARK    1  A    between atoms: _1  and  _3
REMARK    2  A    between atoms: _3  and  _4
REMARK    3  A    between atoms: _3  and  _6
REMARK    4  A    between atoms: _9  and  _11
REMARK    5  A    between atoms: _11  and  _12
REMARK    6  A    between atoms: _11  and  _14
REMARK    7  A    between atoms: _17  and  _19
REMARK    8  A    between atoms: _19  and  _20
REMARK    9  A    between atoms: _22  and  _24
REMARK   10  A    between atoms: _24  and  _25
REMARK   11  A    between atoms: _28  and  _30
REMARK   12  A    between atoms: _30  and  _31
REMARK   13  A    between atoms: _33  and  _35
REMARK   14  A    between atoms: _35  and  _36
REMARK   15  A    between atoms: _35  and  _38
REMARK   16  A    between atoms: _38  and  _39
REMARK   17  A    between atoms: _42  and  _44
REMARK   18  A    between atoms: _44  and  _45
REMARK   19  A    between atoms: _44  and  _47
REMARK   20  A    between atoms: _47  and  _48
REMARK   21  A    between atoms: _50  and  _52
REMARK   22  A    between atoms: _52  and  _53
REMARK   23  A    between atoms: _52  and  _55
REMARK   24  A    between atoms: _55  and  _56
REMARK   25  A    between atoms: _59  and  _61
REMARK   26  A    between atoms: _61  and  _62
REMARK   27  A    between atoms: _61  and  _64
REMARK   28  A    between atoms: _64  and  _65
REMARK   29  A    between atoms: _67  and  _69
REMARK   30  A    between atoms: _69  and  _70
REMARK   31  A    between atoms: _69  and  _72
REMARK   32  A    between atoms: _74  and  _76
REMARK   33  A    between atoms: _76  and  _77
REMARK   34  A    between atoms: _76  and  _79
REMARK   35  A    between atoms: _79  and  _80
REMARK   36  A    between atoms: _83  and  _85
REMARK   37  A    between atoms: _85  and  _86
REMARK   38  A    between atoms: _85  and  _88
REMARK   39  A    between atoms: _88  and  _89
REMARK   40  A    between atoms: _95  and  _97
REMARK   41  A    between atoms: _97  and  _98
REMARK   42  A    between atoms: _97  and  _100
REMARK   43  A    between atoms: _100  and  _101
REMARK   44  A    between atoms: _101  and  _102
REMARK   45  A    between atoms: _102  and  _103
REMARK   46  A    between atoms: _113  and  _114
REMARK   47  A    between atoms: _119  and  _121
REMARK   48  A    between atoms: _121  and  _122
REMARK   49  A    between atoms: _121  and  _124
REMARK   50  A    between atoms: _124  and  _125
REMARK   51  A    between atoms: _125  and  _126
REMARK   52  A    between atoms: _129  and  _131
REMARK   53  A    between atoms: _131  and  _132
REMARK   54  A    between atoms: _135  and  _137
REMARK   55  A    between atoms: _137  and  _138
REMARK   56  A    between atoms: _137  and  _140
REMARK   57  A    between atoms: _143  and  _145
REMARK   58  A    between atoms: _145  and  _146
REMARK   59  A    between atoms: _145  and  _148
REMARK   60  A    between atoms: _148  and  _149
REMARK   61  A    between atoms: _155  and  _157
REMARK   62  A    between atoms: _157  and  _158
REMARK   63  A    between atoms: _157  and  _160
REMARK   64  A    between atoms: _160  and  _161
REMARK   65  A    between atoms: _164  and  _166
REMARK   66  A    between atoms: _166  and  _167
REMARK   67  A    between atoms: _166  and  _169
REMARK   68  A    between atoms: _169  and  _170
REMARK   69  A    between atoms: _176  and  _178
REMARK   70  A    between atoms: _178  and  _179
REMARK   71  A    between atoms: _178  and  _181
REMARK   72  A    between atoms: _181  and  _182
REMARK   73  A    between atoms: _185  and  _187
REMARK   74  A    between atoms: _187  and  _188
REMARK   75  A    between atoms: _187  and  _190
REMARK   76  A    between atoms: _190  and  _191
REMARK   77  A    between atoms: _191  and  _192
REMARK   78  A    between atoms: _197  and  _199
REMARK   79  A    between atoms: _199  and  _200
REMARK   80  A    between atoms: _199  and  _202
REMARK   81  A    between atoms: _202  and  _203
REMARK   82  A    between atoms: _208  and  _210
REMARK   83  A    between atoms: _210  and  _211
REMARK   84  A    between atoms: _210  and  _213
REMARK   85  A    between atoms: _213  and  _214
REMARK   86  A    between atoms: _217  and  _219
REMARK   87  A    between atoms: _219  and  _220
REMARK   88  A    between atoms: _219  and  _222
REMARK   89  A    between atoms: _222  and  _223
REMARK   90  A    between atoms: _228  and  _230
REMARK   91  A    between atoms: _230  and  _231
REMARK   92  A    between atoms: _230  and  _233
REMARK   93  A    between atoms: _233  and  _234
REMARK   94  A    between atoms: _237  and  _239
REMARK   95  A    between atoms: _239  and  _240
REMARK   96  A    between atoms: _239  and  _242
REMARK   97  A    between atoms: _245  and  _247
REMARK   98  A    between atoms: _247  and  _248
REMARK   99  A    between atoms: _247  and  _250
REMARK  100  A    between atoms: _250  and  _251
REMARK  101  A    between atoms: _257  and  _259
REMARK  102  A    between atoms: _259  and  _260
REMARK  103  A    between atoms: _259  and  _262
REMARK  104  A    between atoms: _265  and  _267
REMARK  105  A    between atoms: _267  and  _268
REMARK  106  A    between atoms: _267  and  _270
REMARK  107  A    between atoms: _273  and  _275
REMARK  108  A    between atoms: _275  and  _276
REMARK  109  A    between atoms: _278  and  _280
REMARK  110  A    between atoms: _280  and  _281
REMARK  111  A    between atoms: _280  and  _283
REMARK  112  A    between atoms: _283  and  _284
REMARK  113  A    between atoms: _287  and  _289
REMARK  114  A    between atoms: _289  and  _290
REMARK  115  A    between atoms: _289  and  _292
REMARK  116  A    between atoms: _292  and  _293
REMARK  117  A    between atoms: _295  and  _297
REMARK  118  A    between atoms: _297  and  _298
REMARK  119  A    between atoms: _297  and  _300
REMARK  120  A    between atoms: _300  and  _301
REMARK  121  A    between atoms: _304  and  _306
REMARK  122  A    between atoms: _306  and  _307
REMARK  123  A    between atoms: _310  and  _312
REMARK  124  A    between atoms: _312  and  _313
REMARK  125  A    between atoms: _312  and  _315
REMARK  126  A    between atoms: _318  and  _320
REMARK  127  A    between atoms: _320  and  _321
REMARK  128  A    between atoms: _320  and  _323
REMARK  129  A    between atoms: _323  and  _324
REMARK  130  A    between atoms: _329  and  _330
REMARK  131  A    between atoms: _332  and  _334
REMARK  132  A    between atoms: _334  and  _335
REMARK  133  A    between atoms: _334  and  _337
REMARK  134  A    between atoms: _337  and  _338
REMARK  135  A    between atoms: _344  and  _346
REMARK  136  A    between atoms: _346  and  _347
REMARK  137  A    between atoms: _346  and  _349
REMARK  138  A    between atoms: _349  and  _350
REMARK  139  A    between atoms: _353  and  _355
REMARK  140  A    between atoms: _355  and  _356
REMARK  141  A    between atoms: _355  and  _358
REMARK  142  A    between atoms: _360  and  _362
REMARK  143  A    between atoms: _362  and  _363
REMARK  144  A    between atoms: _362  and  _365
REMARK  145  A    between atoms: _365  and  _366
REMARK  146  A    between atoms: _371  and  _373
REMARK  147  A    between atoms: _373  and  _374
REMARK  148  A    between atoms: _373  and  _376
REMARK  149  A    between atoms: _376  and  _377
REMARK  150  A    between atoms: _380  and  _382
REMARK  151  A    between atoms: _382  and  _383
REMARK  152  A    between atoms: _382  and  _385
REMARK  153  A    between atoms: _385  and  _386
REMARK  154  A    between atoms: _386  and  _387
REMARK  155  A    between atoms: _390  and  _392
REMARK  156  A    between atoms: _392  and  _393
REMARK  157  A    between atoms: _392  and  _395
REMARK  158  A    between atoms: _395  and  _396
REMARK  159  A    between atoms: _399  and  _401
REMARK  160  A    between atoms: _401  and  _402
REMARK  161  A    between atoms: _401  and  _404
REMARK  162  A    between atoms: _407  and  _409
REMARK  163  A    between atoms: _409  and  _410
REMARK  164  A    between atoms: _412  and  _414
REMARK  165  A    between atoms: _414  and  _415
REMARK  166  A    between atoms: _414  and  _417
REMARK  167  A    between atoms: _420  and  _422
REMARK  168  A    between atoms: _422  and  _423
REMARK  169  A    between atoms: _422  and  _425
REMARK  170  A    between atoms: _425  and  _426
REMARK  171  A    between atoms: _431  and  _433
REMARK  172  A    between atoms: _433  and  _434
REMARK  173  A    between atoms: _433  and  _436
REMARK  174  A    between atoms: _436  and  _437
REMARK  175  A    between atoms: _437  and  _438
REMARK  176  A    between atoms: _443  and  _445
REMARK  177  A    between atoms: _445  and  _446
REMARK  178  A    between atoms: _445  and  _448
REMARK  179  A    between atoms: _448  and  _449
REMARK  180  A    between atoms: _454  and  _455
REMARK  181  A    between atoms: _457  and  _459
REMARK  182  A    between atoms: _459  and  _460
REMARK  183  A    between atoms: _459  and  _462
REMARK  184  A    between atoms: _462  and  _463
REMARK  185  A    between atoms: _465  and  _467
REMARK  186  A    between atoms: _467  and  _468
REMARK  187  A    between atoms: _467  and  _470
REMARK  188  A    between atoms: _470  and  _471
REMARK  189  A    between atoms: _474  and  _476
REMARK  190  A    between atoms: _476  and  _477
REMARK  191  A    between atoms: _476  and  _479
REMARK  192  A    between atoms: _479  and  _480
REMARK  193  A    between atoms: _480  and  _481
REMARK  194  A    between atoms: _484  and  _486
REMARK  195  A    between atoms: _486  and  _487
REMARK  196  A    between atoms: _486  and  _489
REMARK  197  A    between atoms: _489  and  _490
REMARK  198  A    between atoms: _496  and  _498
REMARK  199  A    between atoms: _498  and  _499
REMARK                            x       y       z     vdW  Elec       q    Type
REMARK                         _______ _______ _______ _____ _____    ______ ____
ROOT
ATOM      1  O   HOH     1      -8.763  26.731 -50.897  0.00  0.00    +0.000 OA
ENDROOT
TORSDOF 0
REMARK  Name = ../refined-set-2016/1szd/1szd_pocket.pdb
REMARK  199 active torsions:
REMARK  status: ('A' for Active; 'I' for Inactive)
REMARK    1  A    between atoms: _1  and  _3
REMARK    2  A    between atoms: _3  and  _4
REMARK    3  A    between atoms: _3  and  _6
REMARK    4  A    between atoms: _9  and  _11
REMARK    5  A    between atoms: _11  and  _12
REMARK    6  A    between atoms: _11  and  _14
REMARK    7  A    between atoms: _17  and  _19
REMARK    8  A    between atoms: _19  and  _20
REMARK    9  A    between atoms: _22  and  _24
REMARK   10  A    between atoms: _24  and  _25
REMARK   11  A    between atoms: _28  and  _30
REMARK   12  A    between atoms: _30  and  _31
REMARK   13  A    between atoms: _33  and  _35
REMARK   14  A    between atoms: _35  and  _36
REMARK   15  A    between atoms: _35  and  _38
REMARK   16  A    between atoms: _38  and  _39
REMARK   17  A    between atoms: _42  and  _44
REMARK   18  A    between atoms: _44  and  _45
REMARK   19  A    between atoms: _44  and  _47
REMARK   20  A    between atoms: _47  and  _48
REMARK   21  A    between atoms: _50  and  _52
REMARK   22  A    between atoms: _52  and  _53
REMARK   23  A    between atoms: _52  and  _55
REMARK   24  A    between atoms: _55  and  _56
REMARK   25  A    between atoms: _59  and  _61
REMARK   26  A    between atoms: _61  and  _62
REMARK   27  A    between atoms: _61  and  _64
REMARK   28  A    between atoms: _64  and  _65
REMARK   29  A    between atoms: _67  and  _69
REMARK   30  A    between atoms: _69  and  _70
REMARK   31  A    between atoms: _69  and  _72
REMARK   32  A    between atoms: _74  and  _76
REMARK   33  A    between atoms: _76  and  _77
REMARK   34  A    between atoms: _76  and  _79
REMARK   35  A    between atoms: _79  and  _80
REMARK   36  A    between atoms: _83  and  _85
REMARK   37  A    between atoms: _85  and  _86
REMARK   38  A    between atoms: _85  and  _88
REMARK   39  A    between atoms: _88  and  _89
REMARK   40  A    between atoms: _95  and  _97
REMARK   41  A    between atoms: _97  and  _98
REMARK   42  A    between atoms: _97  and  _100
REMARK   43  A    between atoms: _100  and  _101
REMARK   44  A    between atoms: _101  and  _102
REMARK   45  A    between atoms: _102  and  _103
REMARK   46  A    between atoms: _113  and  _114
REMARK   47  A    between atoms: _119  and  _121
REMARK   48  A    between atoms: _121  and  _122
REMARK   49  A    between atoms: _121  and  _124
REMARK   50  A    between atoms: _124  and  _125
REMARK   51  A    between atoms: _125  and  _126
REMARK   52  A    between atoms: _129  and  _131
REMARK   53  A    between atoms: _131  and  _132
REMARK   54  A    between atoms: _135  and  _137
REMARK   55  A    between atoms: _137  and  _138
REMARK   56  A    between atoms: _137  and  _140
REMARK   57  A    between atoms: _143  and  _145
REMARK   58  A    between atoms: _145  and  _146
REMARK   59  A    between atoms: _145  and  _148
REMARK   60  A    between atoms: _148  and  _149
REMARK   61  A    between atoms: _155  and  _157
REMARK   62  A    between atoms: _157  and  _158
REMARK   63  A    between atoms: _157  and  _160
REMARK   64  A    between atoms: _160  and  _161
REMARK   65  A    between atoms: _164  and  _166
REMARK   66  A    between atoms: _166  and  _167
REMARK   67  A    between atoms: _166  and  _169
REMARK   68  A    between atoms: _169  and  _170
REMARK   69  A    between atoms: _176  and  _178
REMARK   70  A    between atoms: _178  and  _179
REMARK   71  A    between atoms: _178  and  _181
REMARK   72  A    between atoms: _181  and  _182
REMARK   73  A    between atoms: _185  and  _187
REMARK   74  A    between atoms: _187  and  _188
REMARK   75  A    between atoms: _187  and  _190
REMARK   76  A    between atoms: _190  and  _191
REMARK   77  A    between atoms: _191  and  _192
REMARK   78  A    between atoms: _197  and  _199
REMARK   79  A    between atoms: _199  and  _200
REMARK   80  A    between atoms: _199  and  _202
REMARK   81  A    between atoms: _202  and  _203
REMARK   82  A    between atoms: _208  and  _210
REMARK   83  A    between atoms: _210  and  _211
REMARK   84  A    between atoms: _210  and  _213
REMARK   85  A    between atoms: _213  and  _214
REMARK   86  A    between atoms: _217  and  _219
REMARK   87  A    between atoms: _219  and  _220
REMARK   88  A    between atoms: _219  and  _222
REMARK   89  A    between atoms: _222  and  _223
REMARK   90  A    between atoms: _228  and  _230
REMARK   91  A    between atoms: _230  and  _231
REMARK   92  A    between atoms: _230  and  _233
REMARK   93  A    between atoms: _233  and  _234
REMARK   94  A    between atoms: _237  and  _239
REMARK   95  A    between atoms: _239  and  _240
REMARK   96  A    between atoms: _239  and  _242
REMARK   97  A    between atoms: _245  and  _247
REMARK   98  A    between atoms: _247  and  _248
REMARK   99  A    between atoms: _247  and  _250
REMARK  100  A    between atoms: _250  and  _251
REMARK  101  A    between atoms: _257  and  _259
REMARK  102  A    between atoms: _259  and  _260
REMARK  103  A    between atoms: _259  and  _262
REMARK  104  A    between atoms: _265  and  _267
REMARK  105  A    between atoms: _267  and  _268
REMARK  106  A    between atoms: _267  and  _270
REMARK  107  A    between atoms: _273  and  _275
REMARK  108  A    between atoms: _275  and  _276
REMARK  109  A    between atoms: _278  and  _280
REMARK  110  A    between atoms: _280  and  _281
REMARK  111  A    between atoms: _280  and  _283
REMARK  112  A    between atoms: _283  and  _284
REMARK  113  A    between atoms: _287  and  _289
REMARK  114  A    between atoms: _289  and  _290
REMARK  115  A    between atoms: _289  and  _292
REMARK  116  A    between atoms: _292  and  _293
REMARK  117  A    between atoms: _295  and  _297
REMARK  118  A    between atoms: _297  and  _298
REMARK  119  A    between atoms: _297  and  _300
REMARK  120  A    between atoms: _300  and  _301
REMARK  121  A    between atoms: _304  and  _306
REMARK  122  A    between atoms: _306  and  _307
REMARK  123  A    between atoms: _310  and  _312
REMARK  124  A    between atoms: _312  and  _313
REMARK  125  A    between atoms: _312  and  _315
REMARK  126  A    between atoms: _318  and  _320
REMARK  127  A    between atoms: _320  and  _321
REMARK  128  A    between atoms: _320  and  _323
REMARK  129  A    between atoms: _323  and  _324
REMARK  130  A    between atoms: _329  and  _330
REMARK  131  A    between atoms: _332  and  _334
REMARK  132  A    between atoms: _334  and  _335
REMARK  133  A    between atoms: _334  and  _337
REMARK  134  A    between atoms: _337  and  _338
REMARK  135  A    between atoms: _344  and  _346
REMARK  136  A    between atoms: _346  and  _347
REMARK  137  A    between atoms: _346  and  _349
REMARK  138  A    between atoms: _349  and  _350
REMARK  139  A    between atoms: _353  and  _355
REMARK  140  A    between atoms: _355  and  _356
REMARK  141  A    between atoms: _355  and  _358
REMARK  142  A    between atoms: _360  and  _362
REMARK  143  A    between atoms: _362  and  _363
REMARK  144  A    between atoms: _362  and  _365
REMARK  145  A    between atoms: _365  and  _366
REMARK  146  A    between atoms: _371  and  _373
REMARK  147  A    between atoms: _373  and  _374
REMARK  148  A    between atoms: _373  and  _376
REMARK  149  A    between atoms: _376  and  _377
REMARK  150  A    between atoms: _380  and  _382
REMARK  151  A    between atoms: _382  and  _383
REMARK  152  A    between atoms: _382  and  _385
REMARK  153  A    between atoms: _385  and  _386
REMARK  154  A    between atoms: _386  and  _387
REMARK  155  A    between atoms: _390  and  _392
REMARK  156  A    between atoms: _392  and  _393
REMARK  157  A    between atoms: _392  and  _395
REMARK  158  A    between atoms: _395  and  _396
REMARK  159  A    between atoms: _399  and  _401
REMARK  160  A    between atoms: _401  and  _402
REMARK  161  A    between atoms: _401  and  _404
REMARK  162  A    between atoms: _407  and  _409
REMARK  163  A    between atoms: _409  and  _410
REMARK  164  A    between atoms: _412  and  _414
REMARK  165  A    between atoms: _414  and  _415
REMARK  166  A    between atoms: _414  and  _417
REMARK  167  A    between atoms: _420  and  _422
REMARK  168  A    between atoms: _422  and  _423
REMARK  169  A    between atoms: _422  and  _425
REMARK  170  A    between atoms: _425  and  _426
REMARK  171  A    between atoms: _431  and  _433
REMARK  172  A    between atoms: _433  and  _434
REMARK  173  A    between atoms: _433  and  _436
REMARK  174  A    between atoms: _436  and  _437
REMARK  175  A    between atoms: _437  and  _438
REMARK  176  A    between atoms: _443  and  _445
REMARK  177  A    between atoms: _445  and  _446
REMARK  178  A    between atoms: _445  and  _448
REMARK  179  A    between atoms: _448  and  _449
REMARK  180  A    between atoms: _454  and  _455
REMARK  181  A    between atoms: _457  and  _459
REMARK  182  A    between atoms: _459  and  _460
REMARK  183  A    between atoms: _459  and  _462
REMARK  184  A    between atoms: _462  and  _463
REMARK  185  A    between atoms: _465  and  _467
REMARK  186  A    between atoms: _467  and  _468
REMARK  187  A    between atoms: _467  and  _470
REMARK  188  A    between atoms: _470  and  _471
REMARK  189  A    between atoms: _474  and  _476
REMARK  190  A    between atoms: _476  and  _477
REMARK  191  A    between atoms: _476  and  _479
REMARK  192  A    between atoms: _479  and  _480
REMARK  193  A    between atoms: _480  and  _481
REMARK  194  A    between atoms: _484  and  _486
REMARK  195  A    between atoms: _486  and  _487
REMARK  196  A    between atoms: _486  and  _489
REMARK  197  A    between atoms: _489  and  _490
REMARK  198  A    between atoms: _496  and  _498
REMARK  199  A    between atoms: _498  and  _499
REMARK                            x       y       z     vdW  Elec       q    Type
REMARK                         _______ _______ _______ _____ _____    ______ ____
ROOT
ATOM      1  O   HOH     1      -4.008  36.517 -56.333  0.00  0.00    +0.000 OA
ENDROOT
TORSDOF 0
REMARK  Name = ../refined-set-2016/1szd/1szd_pocket.pdb
REMARK  199 active torsions:
REMARK  status: ('A' for Active; 'I' for Inactive)
REMARK    1  A    between atoms: _1  and  _3
REMARK    2  A    between atoms: _3  and  _4
REMARK    3  A    between atoms: _3  and  _6
REMARK    4  A    between atoms: _9  and  _11
REMARK    5  A    between atoms: _11  and  _12
REMARK    6  A    between atoms: _11  and  _14
REMARK    7  A    between atoms: _17  and  _19
REMARK    8  A    between atoms: _19  and  _20
REMARK    9  A    between atoms: _22  and  _24
REMARK   10  A    between atoms: _24  and  _25
REMARK   11  A    between atoms: _28  and  _30
REMARK   12  A    between atoms: _30  and  _31
REMARK   13  A    between atoms: _33  and  _35
REMARK   14  A    between atoms: _35  and  _36
REMARK   15  A    between atoms: _35  and  _38
REMARK   16  A    between atoms: _38  and  _39
REMARK   17  A    between atoms: _42  and  _44
REMARK   18  A    between atoms: _44  and  _45
REMARK   19  A    between atoms: _44  and  _47
REMARK   20  A    between atoms: _47  and  _48
REMARK   21  A    between atoms: _50  and  _52
REMARK   22  A    between atoms: _52  and  _53
REMARK   23  A    between atoms: _52  and  _55
REMARK   24  A    between atoms: _55  and  _56
REMARK   25  A    between atoms: _59  and  _61
REMARK   26  A    between atoms: _61  and  _62
REMARK   27  A    between atoms: _61  and  _64
REMARK   28  A    between atoms: _64  and  _65
REMARK   29  A    between atoms: _67  and  _69
REMARK   30  A    between atoms: _69  and  _70
REMARK   31  A    between atoms: _69  and  _72
REMARK   32  A    between atoms: _74  and  _76
REMARK   33  A    between atoms: _76  and  _77
REMARK   34  A    between atoms: _76  and  _79
REMARK   35  A    between atoms: _79  and  _80
REMARK   36  A    between atoms: _83  and  _85
REMARK   37  A    between atoms: _85  and  _86
REMARK   38  A    between atoms: _85  and  _88
REMARK   39  A    between atoms: _88  and  _89
REMARK   40  A    between atoms: _95  and  _97
REMARK   41  A    between atoms: _97  and  _98
REMARK   42  A    between atoms: _97  and  _100
REMARK   43  A    between atoms: _100  and  _101
REMARK   44  A    between atoms: _101  and  _102
REMARK   45  A    between atoms: _102  and  _103
REMARK   46  A    between atoms: _113  and  _114
REMARK   47  A    between atoms: _119  and  _121
REMARK   48  A    between atoms: _121  and  _122
REMARK   49  A    between atoms: _121  and  _124
REMARK   50  A    between atoms: _124  and  _125
REMARK   51  A    between atoms: _125  and  _126
REMARK   52  A    between atoms: _129  and  _131
REMARK   53  A    between atoms: _131  and  _132
REMARK   54  A    between atoms: _135  and  _137
REMARK   55  A    between atoms: _137  and  _138
REMARK   56  A    between atoms: _137  and  _140
REMARK   57  A    between atoms: _143  and  _145
REMARK   58  A    between atoms: _145  and  _146
REMARK   59  A    between atoms: _145  and  _148
REMARK   60  A    between atoms: _148  and  _149
REMARK   61  A    between atoms: _155  and  _157
REMARK   62  A    between atoms: _157  and  _158
REMARK   63  A    between atoms: _157  and  _160
REMARK   64  A    between atoms: _160  and  _161
REMARK   65  A    between atoms: _164  and  _166
REMARK   66  A    between atoms: _166  and  _167
REMARK   67  A    between atoms: _166  and  _169
REMARK   68  A    between atoms: _169  and  _170
REMARK   69  A    between atoms: _176  and  _178
REMARK   70  A    between atoms: _178  and  _179
REMARK   71  A    between atoms: _178  and  _181
REMARK   72  A    between atoms: _181  and  _182
REMARK   73  A    between atoms: _185  and  _187
REMARK   74  A    between atoms: _187  and  _188
REMARK   75  A    between atoms: _187  and  _190
REMARK   76  A    between atoms: _190  and  _191
REMARK   77  A    between atoms: _191  and  _192
REMARK   78  A    between atoms: _197  and  _199
REMARK   79  A    between atoms: _199  and  _200
REMARK   80  A    between atoms: _199  and  _202
REMARK   81  A    between atoms: _202  and  _203
REMARK   82  A    between atoms: _208  and  _210
REMARK   83  A    between atoms: _210  and  _211
REMARK   84  A    between atoms: _210  and  _213
REMARK   85  A    between atoms: _213  and  _214
REMARK   86  A    between atoms: _217  and  _219
REMARK   87  A    between atoms: _219  and  _220
REMARK   88  A    between atoms: _219  and  _222
REMARK   89  A    between atoms: _222  and  _223
REMARK   90  A    between atoms: _228  and  _230
REMARK   91  A    between atoms: _230  and  _231
REMARK   92  A    between atoms: _230  and  _233
REMARK   93  A    between atoms: _233  and  _234
REMARK   94  A    between atoms: _237  and  _239
REMARK   95  A    between atoms: _239  and  _240
REMARK   96  A    between atoms: _239  and  _242
REMARK   97  A    between atoms: _245  and  _247
REMARK   98  A    between atoms: _247  and  _248
REMARK   99  A    between atoms: _247  and  _250
REMARK  100  A    between atoms: _250  and  _251
REMARK  101  A    between atoms: _257  and  _259
REMARK  102  A    between atoms: _259  and  _260
REMARK  103  A    between atoms: _259  and  _262
REMARK  104  A    between atoms: _265  and  _267
REMARK  105  A    between atoms: _267  and  _268
REMARK  106  A    between atoms: _267  and  _270
REMARK  107  A    between atoms: _273  and  _275
REMARK  108  A    between atoms: _275  and  _276
REMARK  109  A    between atoms: _278  and  _280
REMARK  110  A    between atoms: _280  and  _281
REMARK  111  A    between atoms: _280  and  _283
REMARK  112  A    between atoms: _283  and  _284
REMARK  113  A    between atoms: _287  and  _289
REMARK  114  A    between atoms: _289  and  _290
REMARK  115  A    between atoms: _289  and  _292
REMARK  116  A    between atoms: _292  and  _293
REMARK  117  A    between atoms: _295  and  _297
REMARK  118  A    between atoms: _297  and  _298
REMARK  119  A    between atoms: _297  and  _300
REMARK  120  A    between atoms: _300  and  _301
REMARK  121  A    between atoms: _304  and  _306
REMARK  122  A    between atoms: _306  and  _307
REMARK  123  A    between atoms: _310  and  _312
REMARK  124  A    between atoms: _312  and  _313
REMARK  125  A    between atoms: _312  and  _315
REMARK  126  A    between atoms: _318  and  _320
REMARK  127  A    between atoms: _320  and  _321
REMARK  128  A    between atoms: _320  and  _323
REMARK  129  A    between atoms: _323  and  _324
REMARK  130  A    between atoms: _329  and  _330
REMARK  131  A    between atoms: _332  and  _334
REMARK  132  A    between atoms: _334  and  _335
REMARK  133  A    between atoms: _334  and  _337
REMARK  134  A    between atoms: _337  and  _338
REMARK  135  A    between atoms: _344  and  _346
REMARK  136  A    between atoms: _346  and  _347
REMARK  137  A    between atoms: _346  and  _349
REMARK  138  A    between atoms: _349  and  _350
REMARK  139  A    between atoms: _353  and  _355
REMARK  140  A    between atoms: _355  and  _356
REMARK  141  A    between atoms: _355  and  _358
REMARK  142  A    between atoms: _360  and  _362
REMARK  143  A    between atoms: _362  and  _363
REMARK  144  A    between atoms: _362  and  _365
REMARK  145  A    between atoms: _365  and  _366
REMARK  146  A    between atoms: _371  and  _373
REMARK  147  A    between atoms: _373  and  _374
REMARK  148  A    between atoms: _373  and  _376
REMARK  149  A    between atoms: _376  and  _377
REMARK  150  A    between atoms: _380  and  _382
REMARK  151  A    between atoms: _382  and  _383
REMARK  152  A    between atoms: _382  and  _385
REMARK  153  A    between atoms: _385  and  _386
REMARK  154  A    between atoms: _386  and  _387
REMARK  155  A    between atoms: _390  and  _392
REMARK  156  A    between atoms: _392  and  _393
REMARK  157  A    between atoms: _392  and  _395
REMARK  158  A    between atoms: _395  and  _396
REMARK  159  A    between atoms: _399  and  _401
REMARK  160  A    between atoms: _401  and  _402
REMARK  161  A    between atoms: _401  and  _404
REMARK  162  A    between atoms: _407  and  _409
REMARK  163  A    between atoms: _409  and  _410
REMARK  164  A    between atoms: _412  and  _414
REMARK  165  A    between atoms: _414  and  _415
REMARK  166  A    between atoms: _414  and  _417
REMARK  167  A    between atoms: _420  and  _422
REMARK  168  A    between atoms: _422  and  _423
REMARK  169  A    between atoms: _422  and  _425
REMARK  170  A    between atoms: _425  and  _426
REMARK  171  A    between atoms: _431  and  _433
REMARK  172  A    between atoms: _433  and  _434
REMARK  173  A    between atoms: _433  and  _436
REMARK  174  A    between atoms: _436  and  _437
REMARK  175  A    between atoms: _437  and  _438
REMARK  176  A    between atoms: _443  and  _445
REMARK  177  A    between atoms: _445  and  _446
REMARK  178  A    between atoms: _445  and  _448
REMARK  179  A    between atoms: _448  and  _449
REMARK  180  A    between atoms: _454  and  _455
REMARK  181  A    between atoms: _457  and  _459
REMARK  182  A    between atoms: _459  and  _460
REMARK  183  A    between atoms: _459  and  _462
REMARK  184  A    between atoms: _462  and  _463
REMARK  185  A    between atoms: _465  and  _467
REMARK  186  A    between atoms: _467  and  _468
REMARK  187  A    between atoms: _467  and  _470
REMARK  188  A    between atoms: _470  and  _471
REMARK  189  A    between atoms: _474  and  _476
REMARK  190  A    between atoms: _476  and  _477
REMARK  191  A    between atoms: _476  and  _479
REMARK  192  A    between atoms: _479  and  _480
REMARK  193  A    between atoms: _480  and  _481
REMARK  194  A    between atoms: _484  and  _486
REMARK  195  A    between atoms: _486  and  _487
REMARK  196  A    between atoms: _486  and  _489
REMARK  197  A    between atoms: _489  and  _490
REMARK  198  A    between atoms: _496  and  _498
REMARK  199  A    between atoms: _498  and  _499
REMARK                            x       y       z     vdW  Elec       q    Type
REMARK                         _______ _______ _______ _____ _____    ______ ____
ROOT
ATOM      1  O   HOH     1      -8.800  30.041 -54.055  0.00  0.00    +0.000 OA
ENDROOT
TORSDOF 0
REMARK  Name = ../refined-set-2016/1szd/1szd_pocket.pdb
REMARK  199 active torsions:
REMARK  status: ('A' for Active; 'I' for Inactive)
REMARK    1  A    between atoms: _1  and  _3
REMARK    2  A    between atoms: _3  and  _4
REMARK    3  A    between atoms: _3  and  _6
REMARK    4  A    between atoms: _9  and  _11
REMARK    5  A    between atoms: _11  and  _12
REMARK    6  A    between atoms: _11  and  _14
REMARK    7  A    between atoms: _17  and  _19
REMARK    8  A    between atoms: _19  and  _20
REMARK    9  A    between atoms: _22  and  _24
REMARK   10  A    between atoms: _24  and  _25
REMARK   11  A    between atoms: _28  and  _30
REMARK   12  A    between atoms: _30  and  _31
REMARK   13  A    between atoms: _33  and  _35
REMARK   14  A    between atoms: _35  and  _36
REMARK   15  A    between atoms: _35  and  _38
REMARK   16  A    between atoms: _38  and  _39
REMARK   17  A    between atoms: _42  and  _44
REMARK   18  A    between atoms: _44  and  _45
REMARK   19  A    between atoms: _44  and  _47
REMARK   20  A    between atoms: _47  and  _48
REMARK   21  A    between atoms: _50  and  _52
REMARK   22  A    between atoms: _52  and  _53
REMARK   23  A    between atoms: _52  and  _55
REMARK   24  A    between atoms: _55  and  _56
REMARK   25  A    between atoms: _59  and  _61
REMARK   26  A    between atoms: _61  and  _62
REMARK   27  A    between atoms: _61  and  _64
REMARK   28  A    between atoms: _64  and  _65
REMARK   29  A    between atoms: _67  and  _69
REMARK   30  A    between atoms: _69  and  _70
REMARK   31  A    between atoms: _69  and  _72
REMARK   32  A    between atoms: _74  and  _76
REMARK   33  A    between atoms: _76  and  _77
REMARK   34  A    between atoms: _76  and  _79
REMARK   35  A    between atoms: _79  and  _80
REMARK   36  A    between atoms: _83  and  _85
REMARK   37  A    between atoms: _85  and  _86
REMARK   38  A    between atoms: _85  and  _88
REMARK   39  A    between atoms: _88  and  _89
REMARK   40  A    between atoms: _95  and  _97
REMARK   41  A    between atoms: _97  and  _98
REMARK   42  A    between atoms: _97  and  _100
REMARK   43  A    between atoms: _100  and  _101
REMARK   44  A    between atoms: _101  and  _102
REMARK   45  A    between atoms: _102  and  _103
REMARK   46  A    between atoms: _113  and  _114
REMARK   47  A    between atoms: _119  and  _121
REMARK   48  A    between atoms: _121  and  _122
REMARK   49  A    between atoms: _121  and  _124
REMARK   50  A    between atoms: _124  and  _125
REMARK   51  A    between atoms: _125  and  _126
REMARK   52  A    between atoms: _129  and  _131
REMARK   53  A    between atoms: _131  and  _132
REMARK   54  A    between atoms: _135  and  _137
REMARK   55  A    between atoms: _137  and  _138
REMARK   56  A    between atoms: _137  and  _140
REMARK   57  A    between atoms: _143  and  _145
REMARK   58  A    between atoms: _145  and  _146
REMARK   59  A    between atoms: _145  and  _148
REMARK   60  A    between atoms: _148  and  _149
REMARK   61  A    between atoms: _155  and  _157
REMARK   62  A    between atoms: _157  and  _158
REMARK   63  A    between atoms: _157  and  _160
REMARK   64  A    between atoms: _160  and  _161
REMARK   65  A    between atoms: _164  and  _166
REMARK   66  A    between atoms: _166  and  _167
REMARK   67  A    between atoms: _166  and  _169
REMARK   68  A    between atoms: _169  and  _170
REMARK   69  A    between atoms: _176  and  _178
REMARK   70  A    between atoms: _178  and  _179
REMARK   71  A    between atoms: _178  and  _181
REMARK   72  A    between atoms: _181  and  _182
REMARK   73  A    between atoms: _185  and  _187
REMARK   74  A    between atoms: _187  and  _188
REMARK   75  A    between atoms: _187  and  _190
REMARK   76  A    between atoms: _190  and  _191
REMARK   77  A    between atoms: _191  and  _192
REMARK   78  A    between atoms: _197  and  _199
REMARK   79  A    between atoms: _199  and  _200
REMARK   80  A    between atoms: _199  and  _202
REMARK   81  A    between atoms: _202  and  _203
REMARK   82  A    between atoms: _208  and  _210
REMARK   83  A    between atoms: _210  and  _211
REMARK   84  A    between atoms: _210  and  _213
REMARK   85  A    between atoms: _213  and  _214
REMARK   86  A    between atoms: _217  and  _219
REMARK   87  A    between atoms: _219  and  _220
REMARK   88  A    between atoms: _219  and  _222
REMARK   89  A    between atoms: _222  and  _223
REMARK   90  A    between atoms: _228  and  _230
REMARK   91  A    between atoms: _230  and  _231
REMARK   92  A    between atoms: _230  and  _233
REMARK   93  A    between atoms: _233  and  _234
REMARK   94  A    between atoms: _237  and  _239
REMARK   95  A    between atoms: _239  and  _240
REMARK   96  A    between atoms: _239  and  _242
REMARK   97  A    between atoms: _245  and  _247
REMARK   98  A    between atoms: _247  and  _248
REMARK   99  A    between atoms: _247  and  _250
REMARK  100  A    between atoms: _250  and  _251
REMARK  101  A    between atoms: _257  and  _259
REMARK  102  A    between atoms: _259  and  _260
REMARK  103  A    between atoms: _259  and  _262
REMARK  104  A    between atoms: _265  and  _267
REMARK  105  A    between atoms: _267  and  _268
REMARK  106  A    between atoms: _267  and  _270
REMARK  107  A    between atoms: _273  and  _275
REMARK  108  A    between atoms: _275  and  _276
REMARK  109  A    between atoms: _278  and  _280
REMARK  110  A    between atoms: _280  and  _281
REMARK  111  A    between atoms: _280  and  _283
REMARK  112  A    between atoms: _283  and  _284
REMARK  113  A    between atoms: _287  and  _289
REMARK  114  A    between atoms: _289  and  _290
REMARK  115  A    between atoms: _289  and  _292
REMARK  116  A    between atoms: _292  and  _293
REMARK  117  A    between atoms: _295  and  _297
REMARK  118  A    between atoms: _297  and  _298
REMARK  119  A    between atoms: _297  and  _300
REMARK  120  A    between atoms: _300  and  _301
REMARK  121  A    between atoms: _304  and  _306
REMARK  122  A    between atoms: _306  and  _307
REMARK  123  A    between atoms: _310  and  _312
REMARK  124  A    between atoms: _312  and  _313
REMARK  125  A    between atoms: _312  and  _315
REMARK  126  A    between atoms: _318  and  _320
REMARK  127  A    between atoms: _320  and  _321
REMARK  128  A    between atoms: _320  and  _323
REMARK  129  A    between atoms: _323  and  _324
REMARK  130  A    between atoms: _329  and  _330
REMARK  131  A    between atoms: _332  and  _334
REMARK  132  A    between atoms: _334  and  _335
REMARK  133  A    between atoms: _334  and  _337
REMARK  134  A    between atoms: _337  and  _338
REMARK  135  A    between atoms: _344  and  _346
REMARK  136  A    between atoms: _346  and  _347
REMARK  137  A    between atoms: _346  and  _349
REMARK  138  A    between atoms: _349  and  _350
REMARK  139  A    between atoms: _353  and  _355
REMARK  140  A    between atoms: _355  and  _356
REMARK  141  A    between atoms: _355  and  _358
REMARK  142  A    between atoms: _360  and  _362
REMARK  143  A    between atoms: _362  and  _363
REMARK  144  A    between atoms: _362  and  _365
REMARK  145  A    between atoms: _365  and  _366
REMARK  146  A    between atoms: _371  and  _373
REMARK  147  A    between atoms: _373  and  _374
REMARK  148  A    between atoms: _373  and  _376
REMARK  149  A    between atoms: _376  and  _377
REMARK  150  A    between atoms: _380  and  _382
REMARK  151  A    between atoms: _382  and  _383
REMARK  152  A    between atoms: _382  and  _385
REMARK  153  A    between atoms: _385  and  _386
REMARK  154  A    between atoms: _386  and  _387
REMARK  155  A    between atoms: _390  and  _392
REMARK  156  A    between atoms: _392  and  _393
REMARK  157  A    between atoms: _392  and  _395
REMARK  158  A    between atoms: _395  and  _396
REMARK  159  A    between atoms: _399  and  _401
REMARK  160  A    between atoms: _401  and  _402
REMARK  161  A    between atoms: _401  and  _404
REMARK  162  A    between atoms: _407  and  _409
REMARK  163  A    between atoms: _409  and  _410
REMARK  164  A    between atoms: _412  and  _414
REMARK  165  A    between atoms: _414  and  _415
REMARK  166  A    between atoms: _414  and  _417
REMARK  167  A    between atoms: _420  and  _422
REMARK  168  A    between atoms: _422  and  _423
REMARK  169  A    between atoms: _422  and  _425
REMARK  170  A    between atoms: _425  and  _426
REMARK  171  A    between atoms: _431  and  _433
REMARK  172  A    between atoms: _433  and  _434
REMARK  173  A    between atoms: _433  and  _436
REMARK  174  A    between atoms: _436  and  _437
REMARK  175  A    between atoms: _437  and  _438
REMARK  176  A    between atoms: _443  and  _445
REMARK  177  A    between atoms: _445  and  _446
REMARK  178  A    between atoms: _445  and  _448
REMARK  179  A    between atoms: _448  and  _449
REMARK  180  A    between atoms: _454  and  _455
REMARK  181  A    between atoms: _457  and  _459
REMARK  182  A    between atoms: _459  and  _460
REMARK  183  A    between atoms: _459  and  _462
REMARK  184  A    between atoms: _462  and  _463
REMARK  185  A    between atoms: _465  and  _467
REMARK  186  A    between atoms: _467  and  _468
REMARK  187  A    between atoms: _467  and  _470
REMARK  188  A    between atoms: _470  and  _471
REMARK  189  A    between atoms: _474  and  _476
REMARK  190  A    between atoms: _476  and  _477
REMARK  191  A    between atoms: _476  and  _479
REMARK  192  A    between atoms: _479  and  _480
REMARK  193  A    between atoms: _480  and  _481
REMARK  194  A    between atoms: _484  and  _486
REMARK  195  A    between atoms: _486  and  _487
REMARK  196  A    between atoms: _486  and  _489
REMARK  197  A    between atoms: _489  and  _490
REMARK  198  A    between atoms: _496  and  _498
REMARK  199  A    between atoms: _498  and  _499
REMARK                            x       y       z     vdW  Elec       q    Type
REMARK                         _______ _______ _______ _____ _____    ______ ____
ROOT
ATOM      1  O   HOH     1      -9.801  38.214 -45.866  0.00  0.00    +0.000 OA
ENDROOT
TORSDOF 0
REMARK  Name = ../refined-set-2016/1szd/1szd_pocket.pdb
REMARK  199 active torsions:
REMARK  status: ('A' for Active; 'I' for Inactive)
REMARK    1  A    between atoms: _1  and  _3
REMARK    2  A    between atoms: _3  and  _4
REMARK    3  A    between atoms: _3  and  _6
REMARK    4  A    between atoms: _9  and  _11
REMARK    5  A    between atoms: _11  and  _12
REMARK    6  A    between atoms: _11  and  _14
REMARK    7  A    between atoms: _17  and  _19
REMARK    8  A    between atoms: _19  and  _20
REMARK    9  A    between atoms: _22  and  _24
REMARK   10  A    between atoms: _24  and  _25
REMARK   11  A    between atoms: _28  and  _30
REMARK   12  A    between atoms: _30  and  _31
REMARK   13  A    between atoms: _33  and  _35
REMARK   14  A    between atoms: _35  and  _36
REMARK   15  A    between atoms: _35  and  _38
REMARK   16  A    between atoms: _38  and  _39
REMARK   17  A    between atoms: _42  and  _44
REMARK   18  A    between atoms: _44  and  _45
REMARK   19  A    between atoms: _44  and  _47
REMARK   20  A    between atoms: _47  and  _48
REMARK   21  A    between atoms: _50  and  _52
REMARK   22  A    between atoms: _52  and  _53
REMARK   23  A    between atoms: _52  and  _55
REMARK   24  A    between atoms: _55  and  _56
REMARK   25  A    between atoms: _59  and  _61
REMARK   26  A    between atoms: _61  and  _62
REMARK   27  A    between atoms: _61  and  _64
REMARK   28  A    between atoms: _64  and  _65
REMARK   29  A    between atoms: _67  and  _69
REMARK   30  A    between atoms: _69  and  _70
REMARK   31  A    between atoms: _69  and  _72
REMARK   32  A    between atoms: _74  and  _76
REMARK   33  A    between atoms: _76  and  _77
REMARK   34  A    between atoms: _76  and  _79
REMARK   35  A    between atoms: _79  and  _80
REMARK   36  A    between atoms: _83  and  _85
REMARK   37  A    between atoms: _85  and  _86
REMARK   38  A    between atoms: _85  and  _88
REMARK   39  A    between atoms: _88  and  _89
REMARK   40  A    between atoms: _95  and  _97
REMARK   41  A    between atoms: _97  and  _98
REMARK   42  A    between atoms: _97  and  _100
REMARK   43  A    between atoms: _100  and  _101
REMARK   44  A    between atoms: _101  and  _102
REMARK   45  A    between atoms: _102  and  _103
REMARK   46  A    between atoms: _113  and  _114
REMARK   47  A    between atoms: _119  and  _121
REMARK   48  A    between atoms: _121  and  _122
REMARK   49  A    between atoms: _121  and  _124
REMARK   50  A    between atoms: _124  and  _125
REMARK   51  A    between atoms: _125  and  _126
REMARK   52  A    between atoms: _129  and  _131
REMARK   53  A    between atoms: _131  and  _132
REMARK   54  A    between atoms: _135  and  _137
REMARK   55  A    between atoms: _137  and  _138
REMARK   56  A    between atoms: _137  and  _140
REMARK   57  A    between atoms: _143  and  _145
REMARK   58  A    between atoms: _145  and  _146
REMARK   59  A    between atoms: _145  and  _148
REMARK   60  A    between atoms: _148  and  _149
REMARK   61  A    between atoms: _155  and  _157
REMARK   62  A    between atoms: _157  and  _158
REMARK   63  A    between atoms: _157  and  _160
REMARK   64  A    between atoms: _160  and  _161
REMARK   65  A    between atoms: _164  and  _166
REMARK   66  A    between atoms: _166  and  _167
REMARK   67  A    between atoms: _166  and  _169
REMARK   68  A    between atoms: _169  and  _170
REMARK   69  A    between atoms: _176  and  _178
REMARK   70  A    between atoms: _178  and  _179
REMARK   71  A    between atoms: _178  and  _181
REMARK   72  A    between atoms: _181  and  _182
REMARK   73  A    between atoms: _185  and  _187
REMARK   74  A    between atoms: _187  and  _188
REMARK   75  A    between atoms: _187  and  _190
REMARK   76  A    between atoms: _190  and  _191
REMARK   77  A    between atoms: _191  and  _192
REMARK   78  A    between atoms: _197  and  _199
REMARK   79  A    between atoms: _199  and  _200
REMARK   80  A    between atoms: _199  and  _202
REMARK   81  A    between atoms: _202  and  _203
REMARK   82  A    between atoms: _208  and  _210
REMARK   83  A    between atoms: _210  and  _211
REMARK   84  A    between atoms: _210  and  _213
REMARK   85  A    between atoms: _213  and  _214
REMARK   86  A    between atoms: _217  and  _219
REMARK   87  A    between atoms: _219  and  _220
REMARK   88  A    between atoms: _219  and  _222
REMARK   89  A    between atoms: _222  and  _223
REMARK   90  A    between atoms: _228  and  _230
REMARK   91  A    between atoms: _230  and  _231
REMARK   92  A    between atoms: _230  and  _233
REMARK   93  A    between atoms: _233  and  _234
REMARK   94  A    between atoms: _237  and  _239
REMARK   95  A    between atoms: _239  and  _240
REMARK   96  A    between atoms: _239  and  _242
REMARK   97  A    between atoms: _245  and  _247
REMARK   98  A    between atoms: _247  and  _248
REMARK   99  A    between atoms: _247  and  _250
REMARK  100  A    between atoms: _250  and  _251
REMARK  101  A    between atoms: _257  and  _259
REMARK  102  A    between atoms: _259  and  _260
REMARK  103  A    between atoms: _259  and  _262
REMARK  104  A    between atoms: _265  and  _267
REMARK  105  A    between atoms: _267  and  _268
REMARK  106  A    between atoms: _267  and  _270
REMARK  107  A    between atoms: _273  and  _275
REMARK  108  A    between atoms: _275  and  _276
REMARK  109  A    between atoms: _278  and  _280
REMARK  110  A    between atoms: _280  and  _281
REMARK  111  A    between atoms: _280  and  _283
REMARK  112  A    between atoms: _283  and  _284
REMARK  113  A    between atoms: _287  and  _289
REMARK  114  A    between atoms: _289  and  _290
REMARK  115  A    between atoms: _289  and  _292
REMARK  116  A    between atoms: _292  and  _293
REMARK  117  A    between atoms: _295  and  _297
REMARK  118  A    between atoms: _297  and  _298
REMARK  119  A    between atoms: _297  and  _300
REMARK  120  A    between atoms: _300  and  _301
REMARK  121  A    between atoms: _304  and  _306
REMARK  122  A    between atoms: _306  and  _307
REMARK  123  A    between atoms: _310  and  _312
REMARK  124  A    between atoms: _312  and  _313
REMARK  125  A    between atoms: _312  and  _315
REMARK  126  A    between atoms: _318  and  _320
REMARK  127  A    between atoms: _320  and  _321
REMARK  128  A    between atoms: _320  and  _323
REMARK  129  A    between atoms: _323  and  _324
REMARK  130  A    between atoms: _329  and  _330
REMARK  131  A    between atoms: _332  and  _334
REMARK  132  A    between atoms: _334  and  _335
REMARK  133  A    between atoms: _334  and  _337
REMARK  134  A    between atoms: _337  and  _338
REMARK  135  A    between atoms: _344  and  _346
REMARK  136  A    between atoms: _346  and  _347
REMARK  137  A    between atoms: _346  and  _349
REMARK  138  A    between atoms: _349  and  _350
REMARK  139  A    between atoms: _353  and  _355
REMARK  140  A    between atoms: _355  and  _356
REMARK  141  A    between atoms: _355  and  _358
REMARK  142  A    between atoms: _360  and  _362
REMARK  143  A    between atoms: _362  and  _363
REMARK  144  A    between atoms: _362  and  _365
REMARK  145  A    between atoms: _365  and  _366
REMARK  146  A    between atoms: _371  and  _373
REMARK  147  A    between atoms: _373  and  _374
REMARK  148  A    between atoms: _373  and  _376
REMARK  149  A    between atoms: _376  and  _377
REMARK  150  A    between atoms: _380  and  _382
REMARK  151  A    between atoms: _382  and  _383
REMARK  152  A    between atoms: _382  and  _385
REMARK  153  A    between atoms: _385  and  _386
REMARK  154  A    between atoms: _386  and  _387
REMARK  155  A    between atoms: _390  and  _392
REMARK  156  A    between atoms: _392  and  _393
REMARK  157  A    between atoms: _392  and  _395
REMARK  158  A    between atoms: _395  and  _396
REMARK  159  A    between atoms: _399  and  _401
REMARK  160  A    between atoms: _401  and  _402
REMARK  161  A    between atoms: _401  and  _404
REMARK  162  A    between atoms: _407  and  _409
REMARK  163  A    between atoms: _409  and  _410
REMARK  164  A    between atoms: _412  and  _414
REMARK  165  A    between atoms: _414  and  _415
REMARK  166  A    between atoms: _414  and  _417
REMARK  167  A    between atoms: _420  and  _422
REMARK  168  A    between atoms: _422  and  _423
REMARK  169  A    between atoms: _422  and  _425
REMARK  170  A    between atoms: _425  and  _426
REMARK  171  A    between atoms: _431  and  _433
REMARK  172  A    between atoms: _433  and  _434
REMARK  173  A    between atoms: _433  and  _436
REMARK  174  A    between atoms: _436  and  _437
REMARK  175  A    between atoms: _437  and  _438
REMARK  176  A    between atoms: _443  and  _445
REMARK  177  A    between atoms: _445  and  _446
REMARK  178  A    between atoms: _445  and  _448
REMARK  179  A    between atoms: _448  and  _449
REMARK  180  A    between atoms: _454  and  _455
REMARK  181  A    between atoms: _457  and  _459
REMARK  182  A    between atoms: _459  and  _460
REMARK  183  A    between atoms: _459  and  _462
REMARK  184  A    between atoms: _462  and  _463
REMARK  185  A    between atoms: _465  and  _467
REMARK  186  A    between atoms: _467  and  _468
REMARK  187  A    between atoms: _467  and  _470
REMARK  188  A    between atoms: _470  and  _471
REMARK  189  A    between atoms: _474  and  _476
REMARK  190  A    between atoms: _476  and  _477
REMARK  191  A    between atoms: _476  and  _479
REMARK  192  A    between atoms: _479  and  _480
REMARK  193  A    between atoms: _480  and  _481
REMARK  194  A    between atoms: _484  and  _486
REMARK  195  A    between atoms: _486  and  _487
REMARK  196  A    between atoms: _486  and  _489
REMARK  197  A    between atoms: _489  and  _490
REMARK  198  A    between atoms: _496  and  _498
REMARK  199  A    between atoms: _498  and  _499
REMARK                            x       y       z     vdW  Elec       q    Type
REMARK                         _______ _______ _______ _____ _____    ______ ____
ROOT
ATOM      1  O   HOH     1      -1.563  32.894 -54.971  0.00  0.00    +0.000 OA
ENDROOT
TORSDOF 0
